scratch/iowa240/iowa240_1mg/volts.csv
Bus, BasekV, Node1, Magnitude1, Angle1, pu1, Node2, Magnitude2, Angle2, pu2, Node3, Magnitude3, Angle3, pu3, Node4, Magnitude4, Angle4, pu4, Node5, Magnitude5, Angle5, pu5, Node6, Magnitude6, Angle6, pu6
"EQ_SOURCE_BUS", 115, 1,    39604.6,   -0.3,    0.5965, 2,    39630.9, -120.3,   0.59689, 3,    39620.1,  119.6,   0.59673, 0, 0, 0, 0, 0, 0, 0, 0, 0, 0, 0, 0
"BUS1001", 12.47, 1,    8124.46,  -31.6,    1.1285, 2,    8138.06, -151.4,    1.1304, 3,     8138.1,   88.5,    1.1304, 0, 0, 0, 0, 0, 0, 0, 0, 0, 0, 0, 0
"BUS1002", 12.47, 1,    8120.35,  -31.6,    1.1279, 2,    8133.56, -151.4,    1.1297, 3,    8134.06,   88.5,    1.1298, 0, 0, 0, 0, 0, 0, 0, 0, 0, 0, 0, 0
"BUS1003", 12.47, 1,    8120.19,  -31.6,    1.1279, 2,    8133.41, -151.4,    1.1297, 3,    8133.91,   88.5,    1.1298, 0, 0, 0, 0, 0, 0, 0, 0, 0, 0, 0, 0
"BUS1004", 12.47, 1,    8119.65,  -31.6,    1.1278, 2,    8132.65, -151.4,    1.1296, 3,    8133.35,   88.5,    1.1297, 0, 0, 0, 0, 0, 0, 0, 0, 0, 0, 0, 0
"BUS1005", 12.47, 1,    8119.27,  -31.6,    1.1277, 2,    8132.13, -151.4,    1.1295, 3,    8132.96,   88.5,    1.1296, 0, 0, 0, 0, 0, 0, 0, 0, 0, 0, 0, 0
"BUS1006", 12.47, 1,    8118.33,  -31.6,    1.1276, 2,    8130.85, -151.4,    1.1294, 3,       8132,   88.5,    1.1295, 0, 0, 0, 0, 0, 0, 0, 0, 0, 0, 0, 0
"BUS1007", 12.47, 1,     8118.2,  -31.6,    1.1276, 2,    8130.57, -151.4,    1.1293, 0, 0, 0, 0, 0, 0, 0, 0, 0, 0, 0, 0, 0, 0, 0, 0
"BUS1008", 12.47, 1,    8117.99,  -31.6,    1.1276, 2,    8130.44, -151.4,    1.1293, 3,    8131.59,   88.5,    1.1295, 0, 0, 0, 0, 0, 0, 0, 0, 0, 0, 0, 0
"BUS1009", 12.47, 1,    8117.45,  -31.6,    1.1275, 2,    8129.74, -151.4,    1.1292, 3,    8130.86,   88.5,    1.1294, 0, 0, 0, 0, 0, 0, 0, 0, 0, 0, 0, 0
"BUS1010", 12.47, 1,    8117.43,  -31.6,    1.1275, 2,    8129.72, -151.4,    1.1292, 3,    8130.84,   88.5,    1.1294, 4,    8117.43,  -31.6,    1.1275, 5,    8129.72, -151.4,    1.1292, 6,    8130.84,   88.5,    1.1294
"BUS1011", 12.47, 1,    8117.43,  -31.6,    1.1275, 2,    8129.72, -151.4,    1.1292, 3,    8130.83,   88.5,    1.1294, 0, 0, 0, 0, 0, 0, 0, 0, 0, 0, 0, 0
"BUS1012", 12.47, 1,    8117.44,  -31.6,    1.1275, 2,    8129.68, -151.4,    1.1292, 3,    8130.79,   88.5,    1.1293, 0, 0, 0, 0, 0, 0, 0, 0, 0, 0, 0, 0
"BUS1013", 12.47, 1,    8117.48,  -31.6,    1.1275, 2,    8129.65, -151.4,    1.1292, 3,    8130.59,   88.5,    1.1293, 0, 0, 0, 0, 0, 0, 0, 0, 0, 0, 0, 0
"BUS1014", 12.47, 2,    8129.61, -151.4,    1.1292, 0, 0, 0, 0, 0, 0, 0, 0, 0, 0, 0, 0, 0, 0, 0, 0, 0, 0, 0, 0
"BUS1015", 12.47, 2,     8129.6, -151.4,    1.1292, 0, 0, 0, 0, 0, 0, 0, 0, 0, 0, 0, 0, 0, 0, 0, 0, 0, 0, 0, 0
"BUS1016", 12.47, 3,    8130.24,   88.5,    1.1293, 0, 0, 0, 0, 0, 0, 0, 0, 0, 0, 0, 0, 0, 0, 0, 0, 0, 0, 0, 0
"BUS1017", 12.47, 3,    8130.22,   88.5,    1.1293, 0, 0, 0, 0, 0, 0, 0, 0, 0, 0, 0, 0, 0, 0, 0, 0, 0, 0, 0, 0
"BUS2001", 12.47, 1,    8124.46,  -31.6,    1.1285, 2,    8138.06, -151.4,    1.1304, 3,     8138.1,   88.5,    1.1304, 0, 0, 0, 0, 0, 0, 0, 0, 0, 0, 0, 0
"BUS2002", 12.47, 1,    8117.89,  -31.6,    1.1276, 2,    8129.22, -151.4,    1.1291, 3,    8131.66,   88.5,    1.1295, 0, 0, 0, 0, 0, 0, 0, 0, 0, 0, 0, 0
"BUS2003", 12.47, 1,    8112.03,  -31.6,    1.1267, 2,    8122.31, -151.4,    1.1282, 3,    8127.15,   88.5,    1.1288, 0, 0, 0, 0, 0, 0, 0, 0, 0, 0, 0, 0
"BUS2004", 12.47, 1,    8108.55,  -31.7,    1.1263, 2,    8118.17, -151.5,    1.1276, 3,     8124.5,   88.5,    1.1285, 0, 0, 0, 0, 0, 0, 0, 0, 0, 0, 0, 0
"BUS2005", 12.47, 1,    8107.16,  -31.7,    1.1261, 2,    8116.53, -151.5,    1.1274, 3,    8123.45,   88.4,    1.1283, 0, 0, 0, 0, 0, 0, 0, 0, 0, 0, 0, 0
"BUS2006", 12.47, 1,    8106.55,  -31.7,     1.126, 2,    8115.79, -151.5,    1.1273, 3,    8122.99,   88.4,    1.1283, 0, 0, 0, 0, 0, 0, 0, 0, 0, 0, 0, 0
"BUS2007", 12.47, 1,    8106.46,  -31.7,     1.126, 0, 0, 0, 0, 0, 0, 0, 0, 0, 0, 0, 0, 0, 0, 0, 0, 0, 0, 0, 0
"BUS2008", 12.47, 1,    8106.42,  -31.7,     1.126, 0, 0, 0, 0, 0, 0, 0, 0, 0, 0, 0, 0, 0, 0, 0, 0, 0, 0, 0, 0
"BUS2009", 12.47, 1,    8106.45,  -31.7,     1.126, 0, 0, 0, 0, 0, 0, 0, 0, 0, 0, 0, 0, 0, 0, 0, 0, 0, 0, 0, 0
"BUS2010", 12.47, 1,    8105.87,  -31.7,    1.1259, 2,    8114.92, -151.5,    1.1271, 3,    8122.46,   88.4,    1.1282, 0, 0, 0, 0, 0, 0, 0, 0, 0, 0, 0, 0
"BUS2011", 12.47, 1,    8104.79,  -31.7,    1.1257, 2,    8113.51, -151.5,    1.1269, 3,    8121.61,   88.4,    1.1281, 0, 0, 0, 0, 0, 0, 0, 0, 0, 0, 0, 0
"BUS2012", 12.47, 1,    8102.85,  -31.7,    1.1255, 2,    8110.99, -151.5,    1.1266, 3,    8120.09,   88.4,    1.1279, 0, 0, 0, 0, 0, 0, 0, 0, 0, 0, 0, 0
"BUS2013", 12.47, 1,    8102.85,  -31.7,    1.1255, 2,    8110.99, -151.5,    1.1266, 3,    8120.09,   88.4,    1.1279, 4,    8102.85,  -31.7,    1.1255, 5,    8110.99, -151.5,    1.1266, 6,    8120.09,   88.4,    1.1279
"BUS2014", 12.47, 1,    8102.82,  -31.7,    1.1255, 2,    8110.73, -151.5,    1.1266, 3,    8120.21,   88.4,    1.1279, 0, 0, 0, 0, 0, 0, 0, 0, 0, 0, 0, 0
"BUS2015", 12.47, 2,    8110.71, -151.5,    1.1266, 0, 0, 0, 0, 0, 0, 0, 0, 0, 0, 0, 0, 0, 0, 0, 0, 0, 0, 0, 0
"BUS2016", 12.47, 1,    8102.79,  -31.7,    1.1255, 2,    8110.56, -151.5,    1.1265, 3,    8120.29,   88.4,    1.1279, 0, 0, 0, 0, 0, 0, 0, 0, 0, 0, 0, 0
"BUS2017", 12.47, 1,    8102.82,  -31.7,    1.1255, 2,    8110.38, -151.5,    1.1265, 3,    8120.33,   88.4,    1.1279, 0, 0, 0, 0, 0, 0, 0, 0, 0, 0, 0, 0
"BUS2018", 12.47, 1,    8102.83,  -31.7,    1.1255, 2,    8110.22, -151.5,    1.1265, 3,    8120.37,   88.4,    1.1279, 0, 0, 0, 0, 0, 0, 0, 0, 0, 0, 0, 0
"BUS2019", 12.47, 1,    8102.68,  -31.7,    1.1254, 2,     8110.8, -151.5,    1.1266, 3,    8119.93,   88.4,    1.1278, 0, 0, 0, 0, 0, 0, 0, 0, 0, 0, 0, 0
"BUS2020", 12.47, 2,    8110.54, -151.5,    1.1265, 0, 0, 0, 0, 0, 0, 0, 0, 0, 0, 0, 0, 0, 0, 0, 0, 0, 0, 0, 0
"BUS2021", 12.47, 1,    8102.52,  -31.7,    1.1254, 2,    8110.63, -151.5,    1.1265, 3,    8119.78,   88.4,    1.1278, 0, 0, 0, 0, 0, 0, 0, 0, 0, 0, 0, 0
"BUS2022", 12.47, 3,    8119.54,   88.4,    1.1278, 0, 0, 0, 0, 0, 0, 0, 0, 0, 0, 0, 0, 0, 0, 0, 0, 0, 0, 0, 0
"BUS2023", 12.47, 3,    8119.43,   88.4,    1.1278, 0, 0, 0, 0, 0, 0, 0, 0, 0, 0, 0, 0, 0, 0, 0, 0, 0, 0, 0, 0
"BUS2024", 12.47, 3,    8119.15,   88.4,    1.1277, 0, 0, 0, 0, 0, 0, 0, 0, 0, 0, 0, 0, 0, 0, 0, 0, 0, 0, 0, 0
"BUS2025", 12.47, 3,    8119.02,   88.4,    1.1277, 0, 0, 0, 0, 0, 0, 0, 0, 0, 0, 0, 0, 0, 0, 0, 0, 0, 0, 0, 0
"BUS2026", 12.47, 1,    8102.52,  -31.7,    1.1254, 2,    8110.63, -151.5,    1.1265, 3,    8119.78,   88.4,    1.1278, 0, 0, 0, 0, 0, 0, 0, 0, 0, 0, 0, 0
"BUS2027", 12.47, 1,    8101.06,  -31.7,    1.1252, 2,    8109.24, -151.5,    1.1264, 3,    8118.66,   88.4,    1.1277, 0, 0, 0, 0, 0, 0, 0, 0, 0, 0, 0, 0
"BUS2028", 12.47, 1,    8100.82,  -31.7,    1.1252, 2,    8109.15, -151.5,    1.1263, 3,    8118.56,   88.4,    1.1276, 0, 0, 0, 0, 0, 0, 0, 0, 0, 0, 0, 0
"BUS2029", 12.47, 1,    8100.71,  -31.7,    1.1252, 2,    8109.11, -151.5,    1.1263, 3,    8118.52,   88.4,    1.1276, 0, 0, 0, 0, 0, 0, 0, 0, 0, 0, 0, 0
"BUS2030", 12.47, 1,    8100.61,  -31.7,    1.1252, 2,     8109.1, -151.5,    1.1263, 3,     8118.5,   88.4,    1.1276, 0, 0, 0, 0, 0, 0, 0, 0, 0, 0, 0, 0
"BUS2031", 12.47, 1,     8100.5,  -31.7,    1.1251, 2,    8109.12, -151.5,    1.1263, 3,    8118.52,   88.4,    1.1276, 0, 0, 0, 0, 0, 0, 0, 0, 0, 0, 0, 0
"BUS2032", 12.47, 1,    8100.54,  -31.7,    1.1251, 2,    8108.69, -151.5,    1.1263, 3,    8118.25,   88.4,    1.1276, 0, 0, 0, 0, 0, 0, 0, 0, 0, 0, 0, 0
"BUS2033", 12.47, 1,    8099.54,  -31.7,     1.125, 2,    8107.64, -151.5,    1.1261, 3,    8117.45,   88.4,    1.1275, 0, 0, 0, 0, 0, 0, 0, 0, 0, 0, 0, 0
"BUS2034", 12.47, 1,    8099.52,  -31.7,     1.125, 2,    8107.62, -151.5,    1.1261, 3,    8117.43,   88.4,    1.1275, 0, 0, 0, 0, 0, 0, 0, 0, 0, 0, 0, 0
"BUS2035", 12.47, 1,       8099,  -31.7,    1.1249, 2,    8107.07, -151.6,    1.1261, 3,    8117.02,   88.4,    1.1274, 0, 0, 0, 0, 0, 0, 0, 0, 0, 0, 0, 0
"BUS2036", 12.47, 1,    8098.46,  -31.7,    1.1249, 2,     8106.5, -151.6,     1.126, 3,     8116.6,   88.4,    1.1274, 0, 0, 0, 0, 0, 0, 0, 0, 0, 0, 0, 0
"BUS2037", 12.47, 1,     8098.2,  -31.7,    1.1248, 2,    8106.22, -151.6,    1.1259, 3,    8116.39,   88.4,    1.1273, 0, 0, 0, 0, 0, 0, 0, 0, 0, 0, 0, 0
"BUS2038", 12.47, 1,    8097.57,  -31.7,    1.1247, 2,    8105.56, -151.6,    1.1258, 3,     8115.9,   88.4,    1.1273, 0, 0, 0, 0, 0, 0, 0, 0, 0, 0, 0, 0
"BUS2039", 12.47, 1,     8094.7,  -31.7,    1.1243, 2,    8102.55, -151.6,    1.1254, 3,     8113.6,   88.4,     1.127, 0, 0, 0, 0, 0, 0, 0, 0, 0, 0, 0, 0
"BUS2040", 12.47, 1,    8094.32,  -31.7,    1.1243, 2,    8102.16, -151.6,    1.1254, 3,    8113.22,   88.4,    1.1269, 0, 0, 0, 0, 0, 0, 0, 0, 0, 0, 0, 0
"BUS2041", 12.47, 1,    8094.31,  -31.7,    1.1243, 2,    8102.15, -151.6,    1.1254, 3,    8113.21,   88.4,    1.1269, 0, 0, 0, 0, 0, 0, 0, 0, 0, 0, 0, 0
"BUS2042", 12.47, 1,    8094.57,  -31.7,    1.1243, 2,    8102.38, -151.6,    1.1254, 3,    8113.49,   88.4,    1.1269, 0, 0, 0, 0, 0, 0, 0, 0, 0, 0, 0, 0
"BUS2043", 12.47, 1,    8093.98,  -31.7,    1.1242, 2,    8101.66, -151.6,    1.1253, 3,    8113.01,   88.4,    1.1269, 0, 0, 0, 0, 0, 0, 0, 0, 0, 0, 0, 0
"BUS2044", 12.47, 1,    8092.78,  -31.7,    1.1241, 2,    8100.15, -151.6,    1.1251, 3,    8112.04,   88.4,    1.1267, 0, 0, 0, 0, 0, 0, 0, 0, 0, 0, 0, 0
"BUS2045", 12.47, 2,    8099.35, -151.6,     1.125, 0, 0, 0, 0, 0, 0, 0, 0, 0, 0, 0, 0, 0, 0, 0, 0, 0, 0, 0, 0
"BUS2046", 12.47, 2,    8099.04, -151.6,    1.1249, 0, 0, 0, 0, 0, 0, 0, 0, 0, 0, 0, 0, 0, 0, 0, 0, 0, 0, 0, 0
"BUS2047", 12.47, 2,    8099.12, -151.6,    1.1249, 0, 0, 0, 0, 0, 0, 0, 0, 0, 0, 0, 0, 0, 0, 0, 0, 0, 0, 0, 0
"BUS2048", 12.47, 2,    8098.98, -151.6,    1.1249, 0, 0, 0, 0, 0, 0, 0, 0, 0, 0, 0, 0, 0, 0, 0, 0, 0, 0, 0, 0
"BUS2049", 12.47, 1,    8092.68,  -31.7,    1.1241, 2,    8100.02, -151.6,    1.1251, 3,    8111.68,   88.4,    1.1267, 0, 0, 0, 0, 0, 0, 0, 0, 0, 0, 0, 0
"BUS2050", 12.47, 1,    8092.57,  -31.7,     1.124, 2,    8099.89, -151.6,    1.1251, 3,    8111.38,   88.4,    1.1267, 0, 0, 0, 0, 0, 0, 0, 0, 0, 0, 0, 0
"BUS2051", 12.47, 1,    8092.44,  -31.7,     1.124, 2,    8099.74, -151.6,     1.125, 3,    8111.12,   88.4,    1.1266, 0, 0, 0, 0, 0, 0, 0, 0, 0, 0, 0, 0
"BUS2052", 12.47, 1,    8092.28,  -31.7,     1.124, 2,    8099.59, -151.6,     1.125, 3,    8110.97,   88.4,    1.1266, 0, 0, 0, 0, 0, 0, 0, 0, 0, 0, 0, 0
"BUS2053", 12.47, 1,    8091.37,  -31.7,    1.1239, 2,    8099.62, -151.6,     1.125, 3,    8111.76,   88.4,    1.1267, 0, 0, 0, 0, 0, 0, 0, 0, 0, 0, 0, 0
"BUS2054", 12.47, 1,    8091.08,  -31.7,    1.1238, 2,    8099.68, -151.6,     1.125, 3,     8111.8,   88.4,    1.1267, 0, 0, 0, 0, 0, 0, 0, 0, 0, 0, 0, 0
"BUS2055", 12.47, 1,     8090.9,  -31.7,    1.1238, 2,    8099.73, -151.6,     1.125, 3,    8111.82,   88.4,    1.1267, 0, 0, 0, 0, 0, 0, 0, 0, 0, 0, 0, 0
"BUS2056", 12.47, 1,    8090.78,  -31.7,    1.1238, 2,    8099.75, -151.6,     1.125, 3,    8111.84,   88.4,    1.1267, 0, 0, 0, 0, 0, 0, 0, 0, 0, 0, 0, 0
"BUS2057", 12.47, 1,    8090.77,  -31.7,    1.1238, 2,    8098.49, -151.6,    1.1249, 3,     8111.2,   88.4,    1.1266, 0, 0, 0, 0, 0, 0, 0, 0, 0, 0, 0, 0
"BUS2058", 12.47, 1,     8090.4,  -31.7,    1.1237, 2,    8098.13, -151.6,    1.1248, 3,    8110.83,   88.4,    1.1266, 0, 0, 0, 0, 0, 0, 0, 0, 0, 0, 0, 0
"BUS2059", 12.47, 1,    8090.82,  -31.7,    1.1238, 2,    8098.08, -151.6,    1.1248, 3,    8111.29,   88.4,    1.1266, 0, 0, 0, 0, 0, 0, 0, 0, 0, 0, 0, 0
"BUS2060", 12.47, 1,    8090.83,  -31.7,    1.1238, 2,    8098.01, -151.6,    1.1248, 3,    8111.31,   88.4,    1.1266, 0, 0, 0, 0, 0, 0, 0, 0, 0, 0, 0, 0
"BUS3001", 12.47, 1,    8124.46,  -31.6,    1.1285, 2,    8138.06, -151.4,    1.1304, 3,     8138.1,   88.5,    1.1304, 0, 0, 0, 0, 0, 0, 0, 0, 0, 0, 0, 0
"BUS3003", 12.47, 1,    8089.85,  -31.7,    1.1237, 2,    8119.73, -151.4,    1.1278, 3,    8111.67,   88.5,    1.1267, 0, 0, 0, 0, 0, 0, 0, 0, 0, 0, 0, 0
"BUS3002", 12.47, 1,     8089.8,  -31.7,    1.1237, 2,    8119.68, -151.4,    1.1278, 3,    8111.62,   88.5,    1.1267, 0, 0, 0, 0, 0, 0, 0, 0, 0, 0, 0, 0
"BUS3004", 12.47, 1,    8089.84,  -31.7,    1.1237, 2,    8119.72, -151.4,    1.1278, 3,    8111.66,   88.5,    1.1267, 0, 0, 0, 0, 0, 0, 0, 0, 0, 0, 0, 0
"BUS3005", 12.47, 1,    8060.56,  -31.7,    1.1196, 2,    8104.54, -151.5,    1.1257, 3,    8089.45,   88.5,    1.1236, 0, 0, 0, 0, 0, 0, 0, 0, 0, 0, 0, 0
"BUS3006", 12.47, 1,    8060.49,  -31.7,    1.1196, 2,    8104.46, -151.5,    1.1257, 3,    8089.38,   88.5,    1.1236, 0, 0, 0, 0, 0, 0, 0, 0, 0, 0, 0, 0
"BUS3007", 12.47, 1,    8060.43,  -31.7,    1.1196, 2,     8104.4, -151.5,    1.1257, 3,    8089.32,   88.5,    1.1236, 0, 0, 0, 0, 0, 0, 0, 0, 0, 0, 0, 0
"BUS3008", 12.47, 1,     8058.9,  -31.8,    1.1194, 2,    8103.65, -151.5,    1.1256, 3,    8087.79,   88.5,    1.1234, 0, 0, 0, 0, 0, 0, 0, 0, 0, 0, 0, 0
"BUS3009", 12.47, 1,    8058.56,  -31.8,    1.1193, 0, 0, 0, 0, 0, 0, 0, 0, 0, 0, 0, 0, 0, 0, 0, 0, 0, 0, 0, 0
"BUS3010", 12.47, 1,    8057.97,  -31.8,    1.1192, 0, 0, 0, 0, 0, 0, 0, 0, 0, 0, 0, 0, 0, 0, 0, 0, 0, 0, 0, 0
"BUS3011", 12.47, 1,    8057.67,  -31.8,    1.1192, 0, 0, 0, 0, 0, 0, 0, 0, 0, 0, 0, 0, 0, 0, 0, 0, 0, 0, 0, 0
"BUS3012", 12.47, 1,    8057.54,  -31.8,    1.1192, 0, 0, 0, 0, 0, 0, 0, 0, 0, 0, 0, 0, 0, 0, 0, 0, 0, 0, 0, 0
"BUS3013", 12.47, 2,    8103.54, -151.5,    1.1256, 0, 0, 0, 0, 0, 0, 0, 0, 0, 0, 0, 0, 0, 0, 0, 0, 0, 0, 0, 0
"BUS3014", 12.47, 2,    8103.44, -151.5,    1.1255, 0, 0, 0, 0, 0, 0, 0, 0, 0, 0, 0, 0, 0, 0, 0, 0, 0, 0, 0, 0
"BUS3015", 12.47, 1,    8055.43,  -31.8,    1.1189, 2,    8101.46, -151.5,    1.1253, 3,    8083.86,   88.5,    1.1228, 0, 0, 0, 0, 0, 0, 0, 0, 0, 0, 0, 0
"BUS3016", 12.47, 2,    8101.13, -151.5,    1.1252, 0, 0, 0, 0, 0, 0, 0, 0, 0, 0, 0, 0, 0, 0, 0, 0, 0, 0, 0, 0
"BUS3017", 12.47, 2,    8100.91, -151.5,    1.1252, 0, 0, 0, 0, 0, 0, 0, 0, 0, 0, 0, 0, 0, 0, 0, 0, 0, 0, 0, 0
"BUS3018", 12.47, 3,    8083.38,   88.5,    1.1228, 0, 0, 0, 0, 0, 0, 0, 0, 0, 0, 0, 0, 0, 0, 0, 0, 0, 0, 0, 0
"BUS3019", 12.47, 3,    8082.79,   88.5,    1.1227, 0, 0, 0, 0, 0, 0, 0, 0, 0, 0, 0, 0, 0, 0, 0, 0, 0, 0, 0, 0
"BUS3020", 12.47, 3,    8082.31,   88.5,    1.1226, 0, 0, 0, 0, 0, 0, 0, 0, 0, 0, 0, 0, 0, 0, 0, 0, 0, 0, 0, 0
"BUS3021", 12.47, 3,    8082.05,   88.5,    1.1226, 0, 0, 0, 0, 0, 0, 0, 0, 0, 0, 0, 0, 0, 0, 0, 0, 0, 0, 0, 0
"BUS3022", 12.47, 1,    8052.14,  -31.8,    1.1184, 2,    8099.86, -151.5,     1.125, 3,     8080.7,   88.5,    1.1224, 0, 0, 0, 0, 0, 0, 0, 0, 0, 0, 0, 0
"BUS3023", 12.47, 1,    8051.85,  -31.8,    1.1184, 0, 0, 0, 0, 0, 0, 0, 0, 0, 0, 0, 0, 0, 0, 0, 0, 0, 0, 0, 0
"BUS3024", 12.47, 1,    8051.47,  -31.8,    1.1183, 0, 0, 0, 0, 0, 0, 0, 0, 0, 0, 0, 0, 0, 0, 0, 0, 0, 0, 0, 0
"BUS3025", 12.47, 1,    8051.25,  -31.8,    1.1183, 0, 0, 0, 0, 0, 0, 0, 0, 0, 0, 0, 0, 0, 0, 0, 0, 0, 0, 0, 0
"BUS3026", 12.47, 1,    8051.62,  -31.8,    1.1183, 0, 0, 0, 0, 0, 0, 0, 0, 0, 0, 0, 0, 0, 0, 0, 0, 0, 0, 0, 0
"BUS3027", 12.47, 1,     8050.8,  -31.8,    1.1182, 0, 0, 0, 0, 0, 0, 0, 0, 0, 0, 0, 0, 0, 0, 0, 0, 0, 0, 0, 0
"BUS3028", 12.47, 1,    8050.42,  -31.8,    1.1182, 0, 0, 0, 0, 0, 0, 0, 0, 0, 0, 0, 0, 0, 0, 0, 0, 0, 0, 0, 0
"BUS3029", 12.47, 1,    8050.33,  -31.8,    1.1182, 0, 0, 0, 0, 0, 0, 0, 0, 0, 0, 0, 0, 0, 0, 0, 0, 0, 0, 0, 0
"BUS3030", 12.47, 1,    8049.59,  -31.8,    1.1181, 2,    8097.74, -151.5,    1.1248, 3,    8077.54,   88.4,     1.122, 0, 0, 0, 0, 0, 0, 0, 0, 0, 0, 0, 0
"BUS3035", 12.47, 1,    8049.48,  -31.8,    1.1181, 2,    8097.35, -151.5,    1.1247, 3,    8077.64,   88.4,     1.122, 0, 0, 0, 0, 0, 0, 0, 0, 0, 0, 0, 0
"BUS3036", 12.47, 1,    8049.24,  -31.8,     1.118, 2,    8096.39, -151.6,    1.1246, 3,    8077.95,   88.4,     1.122, 0, 0, 0, 0, 0, 0, 0, 0, 0, 0, 0, 0
"BUS3037", 12.47, 1,    8049.13,  -31.8,     1.118, 2,    8095.91, -151.6,    1.1245, 3,    8078.11,   88.4,     1.122, 0, 0, 0, 0, 0, 0, 0, 0, 0, 0, 0, 0
"BUS3038", 12.47, 1,    8048.96,  -31.8,     1.118, 2,    8095.06, -151.6,    1.1244, 3,    8078.44,   88.4,    1.1221, 0, 0, 0, 0, 0, 0, 0, 0, 0, 0, 0, 0
"BUS3039", 12.47, 1,    8048.81,  -31.8,     1.118, 2,    8094.29, -151.6,    1.1243, 3,    8078.76,   88.4,    1.1221, 0, 0, 0, 0, 0, 0, 0, 0, 0, 0, 0, 0
"BUS3053", 12.47, 1,    8048.67,  -31.8,    1.1179, 2,    8093.44, -151.6,    1.1242, 3,    8079.15,   88.4,    1.1222, 0, 0, 0, 0, 0, 0, 0, 0, 0, 0, 0, 0
"BUS3054", 12.47, 1,    8048.65,  -31.8,    1.1179, 2,    8093.42, -151.6,    1.1242, 3,    8079.13,   88.4,    1.1222, 0, 0, 0, 0, 0, 0, 0, 0, 0, 0, 0, 0
"BUS3055", 12.47, 2,    8084.82, -151.6,     1.123, 0, 0, 0, 0, 0, 0, 0, 0, 0, 0, 0, 0, 0, 0, 0, 0, 0, 0, 0, 0
"BUS3056", 12.47, 2,    8084.46, -151.6,    1.1229, 0, 0, 0, 0, 0, 0, 0, 0, 0, 0, 0, 0, 0, 0, 0, 0, 0, 0, 0, 0
"BUS3057", 12.47, 2,    8084.05, -151.6,    1.1229, 0, 0, 0, 0, 0, 0, 0, 0, 0, 0, 0, 0, 0, 0, 0, 0, 0, 0, 0, 0
"BUS3058", 12.47, 2,    8083.74, -151.6,    1.1228, 0, 0, 0, 0, 0, 0, 0, 0, 0, 0, 0, 0, 0, 0, 0, 0, 0, 0, 0, 0
"BUS3059", 12.47, 2,     8083.4, -151.6,    1.1228, 0, 0, 0, 0, 0, 0, 0, 0, 0, 0, 0, 0, 0, 0, 0, 0, 0, 0, 0, 0
"BUS3060", 12.47, 2,    8083.34, -151.6,    1.1228, 0, 0, 0, 0, 0, 0, 0, 0, 0, 0, 0, 0, 0, 0, 0, 0, 0, 0, 0, 0
"BUS3061", 12.47, 2,    8083.31, -151.6,    1.1228, 0, 0, 0, 0, 0, 0, 0, 0, 0, 0, 0, 0, 0, 0, 0, 0, 0, 0, 0, 0
"BUS3062", 12.47, 2,    8083.18, -151.6,    1.1227, 0, 0, 0, 0, 0, 0, 0, 0, 0, 0, 0, 0, 0, 0, 0, 0, 0, 0, 0, 0
"BUS3063", 12.47, 2,    8082.47, -151.6,    1.1226, 0, 0, 0, 0, 0, 0, 0, 0, 0, 0, 0, 0, 0, 0, 0, 0, 0, 0, 0, 0
"BUS3064", 12.47, 2,    8082.05, -151.6,    1.1226, 0, 0, 0, 0, 0, 0, 0, 0, 0, 0, 0, 0, 0, 0, 0, 0, 0, 0, 0, 0
"BUS3065", 12.47, 2,     8081.7, -151.6,    1.1225, 0, 0, 0, 0, 0, 0, 0, 0, 0, 0, 0, 0, 0, 0, 0, 0, 0, 0, 0, 0
"BUS3066", 12.47, 2,    8081.54, -151.6,    1.1225, 0, 0, 0, 0, 0, 0, 0, 0, 0, 0, 0, 0, 0, 0, 0, 0, 0, 0, 0, 0
"BUS3067", 12.47, 2,    8081.32, -151.6,    1.1225, 0, 0, 0, 0, 0, 0, 0, 0, 0, 0, 0, 0, 0, 0, 0, 0, 0, 0, 0, 0
"BUS3040", 12.47, 1,    8049.74,  -31.8,    1.1181, 2,    8097.48, -151.5,    1.1247, 3,    8076.85,   88.4,    1.1219, 0, 0, 0, 0, 0, 0, 0, 0, 0, 0, 0, 0
"BUS3044", 12.47, 3,    8076.72,   88.4,    1.1218, 0, 0, 0, 0, 0, 0, 0, 0, 0, 0, 0, 0, 0, 0, 0, 0, 0, 0, 0, 0
"BUS3045", 12.47, 3,    8076.55,   88.4,    1.1218, 0, 0, 0, 0, 0, 0, 0, 0, 0, 0, 0, 0, 0, 0, 0, 0, 0, 0, 0, 0
"BUS3041", 12.47, 3,    8076.62,   88.4,    1.1218, 0, 0, 0, 0, 0, 0, 0, 0, 0, 0, 0, 0, 0, 0, 0, 0, 0, 0, 0, 0
"BUS3042", 12.47, 3,    8076.18,   88.4,    1.1218, 0, 0, 0, 0, 0, 0, 0, 0, 0, 0, 0, 0, 0, 0, 0, 0, 0, 0, 0, 0
"BUS3043", 12.47, 3,     8075.9,   88.4,    1.1217, 0, 0, 0, 0, 0, 0, 0, 0, 0, 0, 0, 0, 0, 0, 0, 0, 0, 0, 0, 0
"BUS3046", 12.47, 1,     8049.6,  -31.8,    1.1181, 2,    8097.34, -151.5,    1.1247, 3,    8076.71,   88.4,    1.1218, 0, 0, 0, 0, 0, 0, 0, 0, 0, 0, 0, 0
"BUS3047", 12.47, 1,    8049.57,  -31.8,    1.1181, 2,     8097.3, -151.5,    1.1247, 3,    8076.67,   88.4,    1.1218, 0, 0, 0, 0, 0, 0, 0, 0, 0, 0, 0, 0
"BUS3048", 12.47, 1,    8049.57,  -31.8,    1.1181, 2,    8097.31, -151.5,    1.1247, 3,    8076.68,   88.4,    1.1218, 0, 0, 0, 0, 0, 0, 0, 0, 0, 0, 0, 0
"BUS3049", 12.47, 1,    8049.52,  -31.8,    1.1181, 2,    8097.25, -151.5,    1.1247, 3,    8076.63,   88.4,    1.1218, 0, 0, 0, 0, 0, 0, 0, 0, 0, 0, 0, 0
"BUS3050", 12.47, 1,    8049.49,  -31.8,    1.1181, 2,    8097.22, -151.5,    1.1247, 3,    8076.59,   88.4,    1.1218, 0, 0, 0, 0, 0, 0, 0, 0, 0, 0, 0, 0
"BUS3051", 12.47, 1,    8049.43,  -31.8,     1.118, 2,    8097.17, -151.5,    1.1247, 3,    8076.54,   88.4,    1.1218, 0, 0, 0, 0, 0, 0, 0, 0, 0, 0, 0, 0
"BUS3052", 12.47, 1,     8049.4,  -31.8,     1.118, 2,    8097.14, -151.5,    1.1247, 3,    8076.51,   88.4,    1.1218, 0, 0, 0, 0, 0, 0, 0, 0, 0, 0, 0, 0
"BUS3031", 12.47, 1,     8047.7,  -31.9,    1.1178, 2,    8097.13, -151.6,    1.1247, 3,     8075.3,   88.4,    1.1216, 0, 0, 0, 0, 0, 0, 0, 0, 0, 0, 0, 0
"BUS3032", 12.47, 1,    8045.76,  -31.9,    1.1175, 2,    8096.52, -151.6,    1.1246, 3,    8072.99,   88.4,    1.1213, 0, 0, 0, 0, 0, 0, 0, 0, 0, 0, 0, 0
"BUS3033", 12.47, 1,     8042.8,  -31.9,    1.1171, 2,    8095.62, -151.6,    1.1245, 3,    8069.46,   88.4,    1.1208, 0, 0, 0, 0, 0, 0, 0, 0, 0, 0, 0, 0
"BUS3034", 12.47, 1,    8040.88,  -31.9,    1.1169, 2,    8095.06, -151.6,    1.1244, 3,    8067.16,   88.4,    1.1205, 0, 0, 0, 0, 0, 0, 0, 0, 0, 0, 0, 0
"BUS3068", 12.47, 1,    8039.66,  -31.9,    1.1167, 2,    8094.72, -151.6,    1.1243, 3,    8065.71,   88.4,    1.1203, 0, 0, 0, 0, 0, 0, 0, 0, 0, 0, 0, 0
"BUS3069", 12.47, 1,     8039.6,  -31.9,    1.1167, 2,    8094.66, -151.6,    1.1243, 3,    8065.65,   88.4,    1.1203, 0, 0, 0, 0, 0, 0, 0, 0, 0, 0, 0, 0
"BUS3070", 12.47, 1,    8039.59,  -31.9,    1.1167, 2,    8094.64, -151.6,    1.1243, 3,    8065.63,   88.4,    1.1203, 0, 0, 0, 0, 0, 0, 0, 0, 0, 0, 0, 0
"BUS3071", 12.47, 1,    8039.57,  -31.9,    1.1167, 2,    8094.63, -151.6,    1.1243, 3,    8065.62,   88.4,    1.1203, 0, 0, 0, 0, 0, 0, 0, 0, 0, 0, 0, 0
"BUS3072", 12.47, 1,    8039.57,  -31.9,    1.1167, 2,    8094.62, -151.6,    1.1243, 3,    8065.61,   88.4,    1.1203, 0, 0, 0, 0, 0, 0, 0, 0, 0, 0, 0, 0
"BUS3073", 12.47, 1,     8039.6,  -31.9,    1.1167, 2,    8094.65, -151.6,    1.1243, 3,    8065.65,   88.4,    1.1203, 0, 0, 0, 0, 0, 0, 0, 0, 0, 0, 0, 0
"BUS3074", 12.47, 1,    8039.57,  -31.9,    1.1167, 2,    8094.63, -151.6,    1.1243, 3,    8065.62,   88.4,    1.1203, 0, 0, 0, 0, 0, 0, 0, 0, 0, 0, 0, 0
"BUS3075", 12.47, 1,     8038.3,  -31.9,    1.1165, 2,    8094.36, -151.6,    1.1243, 3,    8064.07,   88.4,    1.1201, 0, 0, 0, 0, 0, 0, 0, 0, 0, 0, 0, 0
"BUS3076", 12.47, 1,     8038.3,  -31.9,    1.1165, 2,    8094.36, -151.6,    1.1243, 3,    8064.07,   88.4,    1.1201, 0, 0, 0, 0, 0, 0, 0, 0, 0, 0, 0, 0
"BUS3077", 12.47, 1,    8037.65,  -31.9,    1.1164, 2,     8093.7, -151.6,    1.1242, 3,    8063.42,   88.4,      1.12, 0, 0, 0, 0, 0, 0, 0, 0, 0, 0, 0, 0
"BUS3078", 12.47, 1,    8037.65,  -31.9,    1.1164, 2,    8093.69, -151.6,    1.1242, 3,    8063.42,   88.4,      1.12, 0, 0, 0, 0, 0, 0, 0, 0, 0, 0, 0, 0
"BUS3079", 12.47, 1,    8037.07,  -32.0,    1.1163, 2,    8094.13, -151.6,    1.1243, 3,    8062.55,   88.4,    1.1199, 0, 0, 0, 0, 0, 0, 0, 0, 0, 0, 0, 0
"BUS3080", 12.47, 1,    8032.97,  -32.0,    1.1158, 2,    8093.23, -151.6,    1.1241, 3,    8057.56,   88.4,    1.1192, 0, 0, 0, 0, 0, 0, 0, 0, 0, 0, 0, 0
"BUS3081", 12.47, 1,    8032.97,  -32.0,    1.1158, 2,    8093.23, -151.6,    1.1241, 3,    8057.55,   88.4,    1.1192, 4,    8032.97,  -32.0,    1.1158, 5,    8093.23, -151.6,    1.1241, 6,    8057.55,   88.4,    1.1192
"BUS3082", 12.47, 1,    8029.32,  -32.0,    1.1153, 2,    8092.44, -151.6,     1.124, 3,    8053.11,   88.3,    1.1186, 0, 0, 0, 0, 0, 0, 0, 0, 0, 0, 0, 0
"BUS3083", 12.47, 1,    8028.78,  -32.0,    1.1152, 0, 0, 0, 0, 0, 0, 0, 0, 0, 0, 0, 0, 0, 0, 0, 0, 0, 0, 0, 0
"BUS3084", 12.47, 1,    8028.03,  -32.0,    1.1151, 0, 0, 0, 0, 0, 0, 0, 0, 0, 0, 0, 0, 0, 0, 0, 0, 0, 0, 0, 0
"BUS3085", 12.47, 1,    8026.19,  -32.0,    1.1148, 0, 0, 0, 0, 0, 0, 0, 0, 0, 0, 0, 0, 0, 0, 0, 0, 0, 0, 0, 0
"BUS3086", 12.47, 1,    8025.27,  -32.0,    1.1147, 0, 0, 0, 0, 0, 0, 0, 0, 0, 0, 0, 0, 0, 0, 0, 0, 0, 0, 0, 0
"BUS3087", 12.47, 1,    8024.69,  -32.0,    1.1146, 0, 0, 0, 0, 0, 0, 0, 0, 0, 0, 0, 0, 0, 0, 0, 0, 0, 0, 0, 0
"BUS3088", 12.47, 1,    8023.92,  -32.0,    1.1145, 0, 0, 0, 0, 0, 0, 0, 0, 0, 0, 0, 0, 0, 0, 0, 0, 0, 0, 0, 0
"BUS3089", 12.47, 1,    8023.83,  -32.0,    1.1145, 0, 0, 0, 0, 0, 0, 0, 0, 0, 0, 0, 0, 0, 0, 0, 0, 0, 0, 0, 0
"BUS3090", 12.47, 1,    8023.43,  -32.0,    1.1144, 0, 0, 0, 0, 0, 0, 0, 0, 0, 0, 0, 0, 0, 0, 0, 0, 0, 0, 0, 0
"BUS3091", 12.47, 1,    8023.36,  -32.0,    1.1144, 0, 0, 0, 0, 0, 0, 0, 0, 0, 0, 0, 0, 0, 0, 0, 0, 0, 0, 0, 0
"BUS3092", 12.47, 1,    8028.93,  -32.0,    1.1152, 2,    8092.43, -151.6,     1.124, 3,    8052.32,   88.3,    1.1184, 0, 0, 0, 0, 0, 0, 0, 0, 0, 0, 0, 0
"BUS3093", 12.47, 1,     8028.1,  -32.0,    1.1151, 0, 0, 0, 0, 0, 0, 0, 0, 0, 0, 0, 0, 0, 0, 0, 0, 0, 0, 0, 0
"BUS3094", 12.47, 1,    8027.72,  -32.0,     1.115, 0, 0, 0, 0, 0, 0, 0, 0, 0, 0, 0, 0, 0, 0, 0, 0, 0, 0, 0, 0
"BUS3095", 12.47, 1,    8027.55,  -32.0,     1.115, 0, 0, 0, 0, 0, 0, 0, 0, 0, 0, 0, 0, 0, 0, 0, 0, 0, 0, 0, 0
"BUS3096", 12.47, 1,       8027,  -32.0,    1.1149, 0, 0, 0, 0, 0, 0, 0, 0, 0, 0, 0, 0, 0, 0, 0, 0, 0, 0, 0, 0
"BUS3097", 12.47, 1,    8026.83,  -32.0,    1.1149, 0, 0, 0, 0, 0, 0, 0, 0, 0, 0, 0, 0, 0, 0, 0, 0, 0, 0, 0, 0
"BUS3098", 12.47, 2,    8092.02, -151.6,     1.124, 0, 0, 0, 0, 0, 0, 0, 0, 0, 0, 0, 0, 0, 0, 0, 0, 0, 0, 0, 0
"BUS3099", 12.47, 2,    8091.83, -151.6,    1.1239, 0, 0, 0, 0, 0, 0, 0, 0, 0, 0, 0, 0, 0, 0, 0, 0, 0, 0, 0, 0
"BUS3100", 12.47, 1,    8029.04,  -32.0,    1.1152, 2,    8092.48, -151.6,     1.124, 3,    8051.88,   88.3,    1.1184, 0, 0, 0, 0, 0, 0, 0, 0, 0, 0, 0, 0
"BUS3101", 12.47, 3,    8051.51,   88.3,    1.1183, 0, 0, 0, 0, 0, 0, 0, 0, 0, 0, 0, 0, 0, 0, 0, 0, 0, 0, 0, 0
"BUS3102", 12.47, 3,    8051.06,   88.3,    1.1183, 0, 0, 0, 0, 0, 0, 0, 0, 0, 0, 0, 0, 0, 0, 0, 0, 0, 0, 0, 0
"BUS3103", 12.47, 3,    8050.94,   88.3,    1.1183, 0, 0, 0, 0, 0, 0, 0, 0, 0, 0, 0, 0, 0, 0, 0, 0, 0, 0, 0, 0
"BUS3104", 12.47, 3,    8051.23,   88.3,    1.1183, 0, 0, 0, 0, 0, 0, 0, 0, 0, 0, 0, 0, 0, 0, 0, 0, 0, 0, 0, 0
"BUS3105", 12.47, 3,    8051.02,   88.3,    1.1183, 0, 0, 0, 0, 0, 0, 0, 0, 0, 0, 0, 0, 0, 0, 0, 0, 0, 0, 0, 0
"BUS3106", 12.47, 3,    8050.77,   88.3,    1.1182, 0, 0, 0, 0, 0, 0, 0, 0, 0, 0, 0, 0, 0, 0, 0, 0, 0, 0, 0, 0
"BUS3107", 12.47, 1,    8021.79,  -32.0,    1.1142, 2,    8089.09, -151.6,    1.1236, 3,    8046.09,   88.3,    1.1176, 0, 0, 0, 0, 0, 0, 0, 0, 0, 0, 0, 0
"BUS3108", 12.47, 1,    8019.14,  -32.1,    1.1138, 0, 0, 0, 0, 0, 0, 0, 0, 0, 0, 0, 0, 0, 0, 0, 0, 0, 0, 0, 0
"BUS3109", 12.47, 1,     8018.4,  -32.1,    1.1137, 0, 0, 0, 0, 0, 0, 0, 0, 0, 0, 0, 0, 0, 0, 0, 0, 0, 0, 0, 0
"BUS3110", 12.47, 1,    8017.87,  -32.1,    1.1137, 0, 0, 0, 0, 0, 0, 0, 0, 0, 0, 0, 0, 0, 0, 0, 0, 0, 0, 0, 0
"BUS3111", 12.47, 1,    8017.21,  -32.1,    1.1136, 0, 0, 0, 0, 0, 0, 0, 0, 0, 0, 0, 0, 0, 0, 0, 0, 0, 0, 0, 0
"BUS3112", 12.47, 1,    8016.85,  -32.1,    1.1135, 0, 0, 0, 0, 0, 0, 0, 0, 0, 0, 0, 0, 0, 0, 0, 0, 0, 0, 0, 0
"BUS3113", 12.47, 2,    8088.32, -151.6,    1.1234, 0, 0, 0, 0, 0, 0, 0, 0, 0, 0, 0, 0, 0, 0, 0, 0, 0, 0, 0, 0
"BUS3114", 12.47, 2,    8088.07, -151.6,    1.1234, 0, 0, 0, 0, 0, 0, 0, 0, 0, 0, 0, 0, 0, 0, 0, 0, 0, 0, 0, 0
"BUS3115", 12.47, 2,    8087.77, -151.6,    1.1234, 0, 0, 0, 0, 0, 0, 0, 0, 0, 0, 0, 0, 0, 0, 0, 0, 0, 0, 0, 0
"BUS3116", 12.47, 2,    8087.64, -151.6,    1.1234, 0, 0, 0, 0, 0, 0, 0, 0, 0, 0, 0, 0, 0, 0, 0, 0, 0, 0, 0, 0
"BUS3117", 12.47, 2,    8087.58, -151.6,    1.1233, 0, 0, 0, 0, 0, 0, 0, 0, 0, 0, 0, 0, 0, 0, 0, 0, 0, 0, 0, 0
"BUS3118", 12.47, 1,    8013.97,  -32.0,    1.1131, 2,    8082.98, -151.6,    1.1227, 3,    8049.44,   88.3,     1.118, 0, 0, 0, 0, 0, 0, 0, 0, 0, 0, 0, 0
"BUS3119", 12.47, 2,     8080.2, -151.6,    1.1223, 0, 0, 0, 0, 0, 0, 0, 0, 0, 0, 0, 0, 0, 0, 0, 0, 0, 0, 0, 0
"BUS3120", 12.47, 2,    8079.73, -151.6,    1.1223, 0, 0, 0, 0, 0, 0, 0, 0, 0, 0, 0, 0, 0, 0, 0, 0, 0, 0, 0, 0
"BUS3121", 12.47, 2,    8079.53, -151.6,    1.1222, 0, 0, 0, 0, 0, 0, 0, 0, 0, 0, 0, 0, 0, 0, 0, 0, 0, 0, 0, 0
"BUS3122", 12.47, 2,    8079.42, -151.6,    1.1222, 0, 0, 0, 0, 0, 0, 0, 0, 0, 0, 0, 0, 0, 0, 0, 0, 0, 0, 0, 0
"BUS3123", 12.47, 2,    8079.77, -151.6,    1.1223, 0, 0, 0, 0, 0, 0, 0, 0, 0, 0, 0, 0, 0, 0, 0, 0, 0, 0, 0, 0
...
"BUS_FAULT", 12.47, 1,    8124.46,  -31.6,    1.1285, 2,    8138.06, -151.4,    1.1304, 3,     8138.1,   88.5,    1.1304, 0, 0, 0, 0, 0, 0, 0, 0, 0, 0, 0, 0
"T_BUS1006_L", 0.208, 1,     120.61,  -33.2,    1.0043, 2,    122.552, -151.4,    1.0205, 0, 0, 0, 0, 0, 0, 0, 0, 0, 0, 0, 0, 0, 0, 0, 0
"T_BUS1007_L", 0.208, 1,    119.837,  -34.0,    0.9979, 2,    122.548, -151.4,    1.0205, 0, 0, 0, 0, 0, 0, 0, 0, 0, 0, 0, 0, 0, 0, 0, 0
"T_BUS1011_L", 0.208, 1,    121.363,  -32.0,    1.0106, 2,    121.363,  148.0,    1.0106, 0, 0, 0, 0, 0, 0, 0, 0, 0, 0, 0, 0, 0, 0, 0, 0
"T_BUS1012_L", 0.208, 1,    121.197, -151.6,    1.0092, 2,    121.197,   28.4,    1.0092, 0, 0, 0, 0, 0, 0, 0, 0, 0, 0, 0, 0, 0, 0, 0, 0
"T_BUS1014_L", 0.208, 1,    122.293, -151.4,    1.0184, 2,    122.293,   28.6,    1.0184, 0, 0, 0, 0, 0, 0, 0, 0, 0, 0, 0, 0, 0, 0, 0, 0
"T_BUS1015_L", 0.208, 1,    122.241, -151.5,    1.0179, 2,    122.241,   28.5,    1.0179, 0, 0, 0, 0, 0, 0, 0, 0, 0, 0, 0, 0, 0, 0, 0, 0
"T_BUS1016_L", 0.208, 1,    121.539,   88.4,    1.0121, 2,    121.539,  -91.6,    1.0121, 0, 0, 0, 0, 0, 0, 0, 0, 0, 0, 0, 0, 0, 0, 0, 0
"T_BUS1017_L", 0.208, 1,    121.622,   88.4,    1.0128, 2,    121.622,  -91.6,    1.0128, 0, 0, 0, 0, 0, 0, 0, 0, 0, 0, 0, 0, 0, 0, 0, 0
"T_BUS2008_L", 0.208, 1,     121.42,  -31.9,    1.0111, 2,     121.42,  148.1,    1.0111, 0, 0, 0, 0, 0, 0, 0, 0, 0, 0, 0, 0, 0, 0, 0, 0
"T_BUS2009_L", 0.208, 1,    121.708,  -31.8,    1.0135, 2,    121.708,  148.2,    1.0135, 0, 0, 0, 0, 0, 0, 0, 0, 0, 0, 0, 0, 0, 0, 0, 0
"T_BUS2014_L", 0.208, 1,    121.068, -151.7,    1.0082, 2,    121.068,   28.3,    1.0082, 0, 0, 0, 0, 0, 0, 0, 0, 0, 0, 0, 0, 0, 0, 0, 0
"T_BUS2015_L", 0.208, 1,    121.684, -151.7,    1.0133, 2,    121.684,   28.3,    1.0133, 0, 0, 0, 0, 0, 0, 0, 0, 0, 0, 0, 0, 0, 0, 0, 0
"T_BUS2016_L", 0.208, 1,    121.745, -151.7,    1.0138, 2,    121.745,   28.3,    1.0138, 0, 0, 0, 0, 0, 0, 0, 0, 0, 0, 0, 0, 0, 0, 0, 0
"T_BUS2017_L", 0.208, 1,    120.455, -152.0,     1.003, 2,    120.455,   28.0,     1.003, 0, 0, 0, 0, 0, 0, 0, 0, 0, 0, 0, 0, 0, 0, 0, 0
"T_BUS2018_L", 0.208, 1,    121.376, -151.9,    1.0107, 2,    121.376,   28.1,    1.0107, 0, 0, 0, 0, 0, 0, 0, 0, 0, 0, 0, 0, 0, 0, 0, 0
"T_BUS2020_L", 0.208, 1,    121.271, -151.9,    1.0098, 2,    121.271,   28.1,    1.0098, 0, 0, 0, 0, 0, 0, 0, 0, 0, 0, 0, 0, 0, 0, 0, 0
...