scratch/iowa240/iowa240_3mg/volts.csv
Bus, BasekV, Node1, Magnitude1, Angle1, pu1, Node2, Magnitude2, Angle2, pu2, Node3, Magnitude3, Angle3, pu3, Node4, Magnitude4, Angle4, pu4, Node5, Magnitude5, Angle5, pu5, Node6, Magnitude6, Angle6, pu6
"EQ_SOURCE_BUS", 69, 1,    39783.7,   -0.1,   0.99866, 2,    39811.5, -120.1,   0.99936, 3,    39809.4,  119.8,    0.9993, 0, 0, 0, 0, 0, 0, 0, 0, 0, 0, 0, 0
"BUS1001", 13.8, 1,    8145.96,  -30.6,    1.0224, 2,    8150.56, -150.4,     1.023, 3,    8155.75,   89.5,    1.0236, 0, 0, 0, 0, 0, 0, 0, 0, 0, 0, 0, 0
"BUS1002", 13.8, 1,    8140.91,  -30.7,    1.0218, 2,    8143.32, -150.4,    1.0221, 3,    8149.92,   89.5,    1.0229, 0, 0, 0, 0, 0, 0, 0, 0, 0, 0, 0, 0
"BUS1003", 13.8, 1,    8140.67,  -30.7,    1.0217, 2,    8143.08, -150.4,     1.022, 3,    8149.69,   89.5,    1.0229, 0, 0, 0, 0, 0, 0, 0, 0, 0, 0, 0, 0
"BUS1004", 13.8, 1,    8140.33,  -30.7,    1.0217, 2,    8142.11, -150.4,    1.0219, 3,    8149.23,   89.5,    1.0228, 0, 0, 0, 0, 0, 0, 0, 0, 0, 0, 0, 0
"BUS1005", 13.8, 1,    8140.04,  -30.7,    1.0217, 2,    8141.43, -150.4,    1.0218, 3,    8148.86,   89.5,    1.0228, 0, 0, 0, 0, 0, 0, 0, 0, 0, 0, 0, 0
"BUS1006", 13.8, 1,    8139.45,  -30.7,    1.0216, 2,    8139.81, -150.4,    1.0216, 3,    8148.09,   89.5,    1.0227, 0, 0, 0, 0, 0, 0, 0, 0, 0, 0, 0, 0
"BUS1007", 13.8, 1,    8139.44,  -30.7,    1.0216, 2,    8139.52, -150.4,    1.0216, 0, 0, 0, 0, 0, 0, 0, 0, 0, 0, 0, 0, 0, 0, 0, 0
"BUS1008", 13.8, 1,    8139.21,  -30.7,    1.0216, 2,    8139.36, -150.4,    1.0216, 3,    8147.75,   89.5,    1.0226, 0, 0, 0, 0, 0, 0, 0, 0, 0, 0, 0, 0
"BUS1009", 13.8, 1,    8138.77,  -30.7,    1.0215, 2,    8138.45, -150.4,    1.0215, 3,    8147.09,   89.5,    1.0225, 0, 0, 0, 0, 0, 0, 0, 0, 0, 0, 0, 0
"BUS1010", 13.8, 1,    8138.76,  -30.7,    1.0215, 2,    8138.44, -150.4,    1.0215, 3,    8147.08,   89.5,    1.0225, 4,    8138.76,  -30.7,    1.0215, 5,    8138.44, -150.4,    1.0215, 6,    8147.08,   89.5,    1.0225
"BUS1011", 13.8, 1,    8138.75,  -30.7,    1.0215, 2,    8138.38, -150.4,    1.0215, 3,    8147.02,   89.5,    1.0225, 0, 0, 0, 0, 0, 0, 0, 0, 0, 0, 0, 0
"BUS1012", 13.8, 1,    8138.77,  -30.7,    1.0215, 2,    8138.29, -150.4,    1.0214, 3,    8146.95,   89.5,    1.0225, 0, 0, 0, 0, 0, 0, 0, 0, 0, 0, 0, 0
"BUS1013", 13.8, 1,    8138.86,  -30.7,    1.0215, 2,    8138.08, -150.4,    1.0214, 3,    8146.52,   89.5,    1.0225, 0, 0, 0, 0, 0, 0, 0, 0, 0, 0, 0, 0
"BUS1014", 13.8, 2,    8137.97, -150.4,    1.0214, 0, 0, 0, 0, 0, 0, 0, 0, 0, 0, 0, 0, 0, 0, 0, 0, 0, 0, 0, 0
"BUS1015", 13.8, 2,    8137.94, -150.4,    1.0214, 0, 0, 0, 0, 0, 0, 0, 0, 0, 0, 0, 0, 0, 0, 0, 0, 0, 0, 0, 0
"BUS1016", 13.8, 3,    8145.86,   89.5,    1.0224, 0, 0, 0, 0, 0, 0, 0, 0, 0, 0, 0, 0, 0, 0, 0, 0, 0, 0, 0, 0
"BUS1017", 13.8, 3,    8145.82,   89.5,    1.0224, 0, 0, 0, 0, 0, 0, 0, 0, 0, 0, 0, 0, 0, 0, 0, 0, 0, 0, 0, 0
"BUS2001", 13.8, 1,    8145.96,  -30.6,    1.0224, 2,    8150.56, -150.4,     1.023, 3,    8155.75,   89.5,    1.0236, 0, 0, 0, 0, 0, 0, 0, 0, 0, 0, 0, 0
"BUS2002", 13.8, 1,    8135.12,  -30.7,     1.021, 2,    8137.03, -150.4,    1.0213, 3,    8145.91,   89.5,    1.0224, 0, 0, 0, 0, 0, 0, 0, 0, 0, 0, 0, 0
"BUS2003", 13.8, 1,    8127.99,  -30.8,    1.0202, 2,    8129.48, -150.5,    1.0203, 3,    8140.95,   89.4,    1.0218, 0, 0, 0, 0, 0, 0, 0, 0, 0, 0, 0, 0
"BUS2004", 13.8, 1,    8123.66,  -30.8,    1.0196, 2,    8124.88, -150.6,    1.0198, 3,    8137.97,   89.4,    1.0214, 0, 0, 0, 0, 0, 0, 0, 0, 0, 0, 0, 0
"BUS2005", 13.8, 1,    8121.94,  -30.8,    1.0194, 2,    8123.06, -150.6,    1.0195, 3,    8136.79,   89.3,    1.0213, 0, 0, 0, 0, 0, 0, 0, 0, 0, 0, 0, 0
"BUS2006", 13.8, 1,    8121.17,  -30.8,    1.0193, 2,    8122.24, -150.6,    1.0194, 3,    8136.25,   89.3,    1.0212, 0, 0, 0, 0, 0, 0, 0, 0, 0, 0, 0, 0
"BUS2007", 13.8, 1,       8121,  -30.8,    1.0193, 0, 0, 0, 0, 0, 0, 0, 0, 0, 0, 0, 0, 0, 0, 0, 0, 0, 0, 0, 0
"BUS2008", 13.8, 1,    8120.93,  -30.8,    1.0193, 0, 0, 0, 0, 0, 0, 0, 0, 0, 0, 0, 0, 0, 0, 0, 0, 0, 0, 0, 0
"BUS2009", 13.8, 1,    8120.98,  -30.8,    1.0193, 0, 0, 0, 0, 0, 0, 0, 0, 0, 0, 0, 0, 0, 0, 0, 0, 0, 0, 0, 0
"BUS2010", 13.8, 1,    8120.31,  -30.8,    1.0192, 2,    8121.23, -150.7,    1.0193, 3,    8135.66,   89.3,    1.0211, 0, 0, 0, 0, 0, 0, 0, 0, 0, 0, 0, 0
"BUS2011", 13.8, 1,    8118.95,  -30.9,     1.019, 2,    8119.61, -150.7,    1.0191, 3,    8134.71,   89.3,     1.021, 0, 0, 0, 0, 0, 0, 0, 0, 0, 0, 0, 0
"BUS2012", 13.8, 1,     8116.5,  -30.9,    1.0187, 2,    8116.69, -150.7,    1.0187, 3,    8133.01,   89.3,    1.0208, 0, 0, 0, 0, 0, 0, 0, 0, 0, 0, 0, 0
"BUS2013", 13.8, 1,     8116.5,  -30.9,    1.0187, 2,    8116.69, -150.7,    1.0187, 3,    8133.01,   89.3,    1.0208, 4,     8116.5,  -30.9,    1.0187, 5,    8116.69, -150.7,    1.0187, 6,    8133.01,   89.3,    1.0208
"BUS2014", 13.8, 1,    8116.38,  -30.9,    1.0187, 2,    8116.42, -150.7,    1.0187, 3,    8133.22,   89.3,    1.0208, 0, 0, 0, 0, 0, 0, 0, 0, 0, 0, 0, 0
"BUS2015", 13.8, 2,    8116.38, -150.7,    1.0187, 0, 0, 0, 0, 0, 0, 0, 0, 0, 0, 0, 0, 0, 0, 0, 0, 0, 0, 0, 0
"BUS2016", 13.8, 1,    8116.31,  -30.9,    1.0187, 2,    8116.26, -150.7,    1.0187, 3,    8133.34,   89.3,    1.0208, 0, 0, 0, 0, 0, 0, 0, 0, 0, 0, 0, 0
"BUS2017", 13.8, 1,    8116.31,  -30.9,    1.0187, 2,    8116.06, -150.7,    1.0187, 3,    8133.41,   89.3,    1.0208, 0, 0, 0, 0, 0, 0, 0, 0, 0, 0, 0, 0
"BUS2018", 13.8, 1,    8116.31,  -30.9,    1.0187, 2,    8115.81, -150.7,    1.0186, 3,    8133.49,   89.3,    1.0208, 0, 0, 0, 0, 0, 0, 0, 0, 0, 0, 0, 0
"BUS2019", 13.8, 1,     8116.3,  -30.9,    1.0187, 2,    8116.48, -150.7,    1.0187, 3,    8132.83,   89.3,    1.0208, 0, 0, 0, 0, 0, 0, 0, 0, 0, 0, 0, 0
"BUS2020", 13.8, 2,    8116.16, -150.7,    1.0187, 0, 0, 0, 0, 0, 0, 0, 0, 0, 0, 0, 0, 0, 0, 0, 0, 0, 0, 0, 0
"BUS2021", 13.8, 1,    8116.12,  -30.9,    1.0187, 2,    8116.28, -150.7,    1.0187, 3,    8132.64,   89.3,    1.0207, 0, 0, 0, 0, 0, 0, 0, 0, 0, 0, 0, 0
"BUS2022", 13.8, 3,    8132.27,   89.3,    1.0207, 0, 0, 0, 0, 0, 0, 0, 0, 0, 0, 0, 0, 0, 0, 0, 0, 0, 0, 0, 0
"BUS2023", 13.8, 3,    8132.08,   89.3,    1.0207, 0, 0, 0, 0, 0, 0, 0, 0, 0, 0, 0, 0, 0, 0, 0, 0, 0, 0, 0, 0
"BUS2024", 13.8, 3,    8131.62,   89.3,    1.0206, 0, 0, 0, 0, 0, 0, 0, 0, 0, 0, 0, 0, 0, 0, 0, 0, 0, 0, 0, 0
"BUS2025", 13.8, 3,    8131.44,   89.3,    1.0206, 0, 0, 0, 0, 0, 0, 0, 0, 0, 0, 0, 0, 0, 0, 0, 0, 0, 0, 0, 0
"BUS2026", 13.8, 1,    8116.12,  -30.9,    1.0187, 2,    8116.28, -150.7,    1.0187, 3,    8132.64,   89.3,    1.0207, 0, 0, 0, 0, 0, 0, 0, 0, 0, 0, 0, 0
"BUS2027", 13.8, 1,    8114.34,  -30.9,    1.0184, 2,     8114.7, -150.7,    1.0185, 3,    8131.32,   89.3,    1.0206, 0, 0, 0, 0, 0, 0, 0, 0, 0, 0, 0, 0
"BUS2028", 13.8, 1,     8113.8,  -30.9,    1.0184, 2,    8114.54, -150.7,    1.0185, 3,    8131.07,   89.3,    1.0205, 0, 0, 0, 0, 0, 0, 0, 0, 0, 0, 0, 0
"BUS2029", 13.8, 1,     8113.6,  -30.9,    1.0183, 2,    8114.45, -150.7,    1.0185, 3,    8130.95,   89.3,    1.0205, 0, 0, 0, 0, 0, 0, 0, 0, 0, 0, 0, 0
"BUS2030", 13.8, 1,    8113.41,  -30.9,    1.0183, 2,    8114.41, -150.7,    1.0184, 3,    8130.87,   89.3,    1.0205, 0, 0, 0, 0, 0, 0, 0, 0, 0, 0, 0, 0
"BUS2031", 13.8, 1,    8113.26,  -30.9,    1.0183, 2,    8114.46, -150.7,    1.0185, 3,    8130.87,   89.3,    1.0205, 0, 0, 0, 0, 0, 0, 0, 0, 0, 0, 0, 0
"BUS2032", 13.8, 1,    8113.72,  -30.9,    1.0184, 2,    8114.07, -150.7,    1.0184, 3,    8130.86,   89.3,    1.0205, 0, 0, 0, 0, 0, 0, 0, 0, 0, 0, 0, 0
"BUS2033", 13.8, 1,    8112.54,  -30.9,    1.0182, 2,    8112.85, -150.8,    1.0183, 3,    8129.97,   89.2,    1.0204, 0, 0, 0, 0, 0, 0, 0, 0, 0, 0, 0, 0
"BUS2034", 13.8, 1,     8112.5,  -30.9,    1.0182, 2,    8112.82, -150.8,    1.0182, 3,    8129.93,   89.2,    1.0204, 0, 0, 0, 0, 0, 0, 0, 0, 0, 0, 0, 0
"BUS2035", 13.8, 1,     8111.9,  -30.9,    1.0181, 2,     8112.2, -150.8,    1.0182, 3,    8129.49,   89.2,    1.0203, 0, 0, 0, 0, 0, 0, 0, 0, 0, 0, 0, 0
"BUS2036", 13.8, 1,    8111.28,  -30.9,    1.0181, 2,    8111.56, -150.8,    1.0181, 3,    8129.03,   89.2,    1.0203, 0, 0, 0, 0, 0, 0, 0, 0, 0, 0, 0, 0
"BUS2037", 13.8, 1,    8110.97,  -30.9,     1.018, 2,    8111.24, -150.8,     1.018, 3,     8128.8,   89.2,    1.0203, 0, 0, 0, 0, 0, 0, 0, 0, 0, 0, 0, 0
"BUS2038", 13.8, 1,    8110.24,  -31.0,    1.0179, 2,    8110.49, -150.8,     1.018, 3,    8128.27,   89.2,    1.0202, 0, 0, 0, 0, 0, 0, 0, 0, 0, 0, 0, 0
"BUS2039", 13.8, 1,    8106.94,  -31.0,    1.0175, 2,     8107.1, -150.8,    1.0175, 3,    8125.78,   89.2,    1.0199, 0, 0, 0, 0, 0, 0, 0, 0, 0, 0, 0, 0
"BUS2040", 13.8, 1,    8106.68,  -31.0,    1.0175, 2,    8106.85, -150.8,    1.0175, 3,    8125.53,   89.2,    1.0198, 0, 0, 0, 0, 0, 0, 0, 0, 0, 0, 0, 0
"BUS2041", 13.8, 1,    8106.66,  -31.0,    1.0175, 2,    8106.82, -150.8,    1.0175, 3,     8125.5,   89.2,    1.0198, 0, 0, 0, 0, 0, 0, 0, 0, 0, 0, 0, 0
"BUS2042", 13.8, 1,    8106.68,  -31.0,    1.0175, 2,    8106.79, -150.8,    1.0175, 3,    8125.56,   89.2,    1.0198, 0, 0, 0, 0, 0, 0, 0, 0, 0, 0, 0, 0
"BUS2043", 13.8, 1,    8105.55,  -31.0,    1.0173, 2,    8105.44, -150.8,    1.0173, 3,    8124.62,   89.2,    1.0197, 0, 0, 0, 0, 0, 0, 0, 0, 0, 0, 0, 0
"BUS2044", 13.8, 1,    8103.28,  -31.0,    1.0171, 2,    8102.67, -150.9,     1.017, 3,    8122.74,   89.2,    1.0195, 0, 0, 0, 0, 0, 0, 0, 0, 0, 0, 0, 0
"BUS2045", 13.8, 2,    8101.51, -150.9,    1.0168, 0, 0, 0, 0, 0, 0, 0, 0, 0, 0, 0, 0, 0, 0, 0, 0, 0, 0, 0, 0
"BUS2046", 13.8, 2,    8101.15, -150.9,    1.0168, 0, 0, 0, 0, 0, 0, 0, 0, 0, 0, 0, 0, 0, 0, 0, 0, 0, 0, 0, 0
"BUS2047", 13.8, 2,    8101.09, -150.9,    1.0168, 0, 0, 0, 0, 0, 0, 0, 0, 0, 0, 0, 0, 0, 0, 0, 0, 0, 0, 0, 0
"BUS2048", 13.8, 2,    8100.81, -150.9,    1.0167, 0, 0, 0, 0, 0, 0, 0, 0, 0, 0, 0, 0, 0, 0, 0, 0, 0, 0, 0, 0
"BUS2049", 13.8, 1,    8103.17,  -31.0,     1.017, 2,    8102.44, -150.9,    1.0169, 3,     8122.2,   89.2,    1.0194, 0, 0, 0, 0, 0, 0, 0, 0, 0, 0, 0, 0
"BUS2050", 13.8, 1,    8103.02,  -31.0,     1.017, 2,    8102.23, -150.9,    1.0169, 3,    8121.79,   89.2,    1.0194, 0, 0, 0, 0, 0, 0, 0, 0, 0, 0, 0, 0
"BUS2051", 13.8, 1,    8102.82,  -31.0,     1.017, 2,    8101.99, -150.9,    1.0169, 3,    8121.42,   89.2,    1.0193, 0, 0, 0, 0, 0, 0, 0, 0, 0, 0, 0, 0
"BUS2052", 13.8, 1,    8102.59,  -31.0,     1.017, 2,    8101.76, -150.9,    1.0169, 3,    8121.19,   89.2,    1.0193, 0, 0, 0, 0, 0, 0, 0, 0, 0, 0, 0, 0
"BUS2053", 13.8, 1,    8100.65,  -31.0,    1.0167, 2,     8101.4, -150.9,    1.0168, 3,    8121.52,   89.2,    1.0193, 0, 0, 0, 0, 0, 0, 0, 0, 0, 0, 0, 0
"BUS2054", 13.8, 1,    8100.27,  -31.0,    1.0167, 2,    8101.53, -150.9,    1.0168, 3,    8121.52,   89.2,    1.0193, 0, 0, 0, 0, 0, 0, 0, 0, 0, 0, 0, 0
"BUS2055", 13.8, 1,    8099.97,  -31.0,    1.0166, 2,    8101.63, -150.9,    1.0168, 3,    8121.52,   89.2,    1.0193, 0, 0, 0, 0, 0, 0, 0, 0, 0, 0, 0, 0
"BUS2056", 13.8, 1,    8099.85,  -31.0,    1.0166, 2,    8101.67, -150.9,    1.0168, 3,    8121.52,   89.2,    1.0193, 0, 0, 0, 0, 0, 0, 0, 0, 0, 0, 0, 0
"BUS2057", 13.8, 1,    8099.39,  -31.0,    1.0166, 2,    8099.55, -150.9,    1.0166, 3,    8120.47,   89.2,    1.0192, 0, 0, 0, 0, 0, 0, 0, 0, 0, 0, 0, 0
"BUS2058", 13.8, 1,    8098.71,  -31.0,    1.0165, 2,    8098.87, -150.9,    1.0165, 3,    8119.79,   89.2,    1.0191, 0, 0, 0, 0, 0, 0, 0, 0, 0, 0, 0, 0
"BUS2059", 13.8, 1,    8099.39,  -31.0,    1.0166, 2,    8099.02, -150.9,    1.0165, 3,    8120.65,   89.2,    1.0192, 0, 0, 0, 0, 0, 0, 0, 0, 0, 0, 0, 0
"BUS2060", 13.8, 1,    8099.38,  -31.0,    1.0166, 2,     8098.9, -150.9,    1.0165, 3,    8120.69,   89.2,    1.0192, 0, 0, 0, 0, 0, 0, 0, 0, 0, 0, 0, 0
"BUS3001", 13.8, 1,    8145.96,  -30.6,    1.0224, 2,    8150.56, -150.4,     1.023, 3,    8155.75,   89.5,    1.0236, 0, 0, 0, 0, 0, 0, 0, 0, 0, 0, 0, 0
"BUS3003", 13.8, 1,    8098.22,  -30.9,    1.0164, 2,    8121.85, -150.6,    1.0194, 3,    8115.18,   89.4,    1.0185, 0, 0, 0, 0, 0, 0, 0, 0, 0, 0, 0, 0
"BUS3002", 13.8, 1,     8098.2,  -30.9,    1.0164, 2,    8121.82, -150.6,    1.0194, 3,    8115.16,   89.4,    1.0185, 0, 0, 0, 0, 0, 0, 0, 0, 0, 0, 0, 0
"BUS3004", 13.8, 1,    8098.21,  -30.9,    1.0164, 2,    8121.84, -150.6,    1.0194, 3,    8115.17,   89.4,    1.0185, 0, 0, 0, 0, 0, 0, 0, 0, 0, 0, 0, 0
"BUS3005", 13.8, 1,    8057.42,  -31.1,    1.0113, 2,    8097.46, -150.7,    1.0163, 3,    8080.52,   89.3,    1.0142, 0, 0, 0, 0, 0, 0, 0, 0, 0, 0, 0, 0
"BUS3006", 13.8, 1,    8057.34,  -31.1,    1.0113, 2,    8097.38, -150.7,    1.0163, 3,    8080.44,   89.3,    1.0142, 0, 0, 0, 0, 0, 0, 0, 0, 0, 0, 0, 0
"BUS3007", 13.8, 1,    8057.28,  -31.1,    1.0113, 2,    8097.32, -150.7,    1.0163, 3,    8080.39,   89.3,    1.0142, 0, 0, 0, 0, 0, 0, 0, 0, 0, 0, 0, 0
"BUS3008", 13.8, 1,    8055.62,  -31.1,    1.0111, 2,    8096.33, -150.7,    1.0162, 3,    8078.53,   89.3,    1.0139, 0, 0, 0, 0, 0, 0, 0, 0, 0, 0, 0, 0
"BUS3009", 13.8, 1,    8055.12,  -31.1,     1.011, 0, 0, 0, 0, 0, 0, 0, 0, 0, 0, 0, 0, 0, 0, 0, 0, 0, 0, 0, 0
"BUS3010", 13.8, 1,    8054.32,  -31.1,    1.0109, 0, 0, 0, 0, 0, 0, 0, 0, 0, 0, 0, 0, 0, 0, 0, 0, 0, 0, 0, 0
"BUS3011", 13.8, 1,    8053.88,  -31.1,    1.0108, 0, 0, 0, 0, 0, 0, 0, 0, 0, 0, 0, 0, 0, 0, 0, 0, 0, 0, 0, 0
"BUS3012", 13.8, 1,    8053.61,  -31.1,    1.0108, 0, 0, 0, 0, 0, 0, 0, 0, 0, 0, 0, 0, 0, 0, 0, 0, 0, 0, 0, 0
"BUS3013", 13.8, 2,    8096.13, -150.7,    1.0162, 0, 0, 0, 0, 0, 0, 0, 0, 0, 0, 0, 0, 0, 0, 0, 0, 0, 0, 0, 0
"BUS3014", 13.8, 2,    8095.93, -150.7,    1.0161, 0, 0, 0, 0, 0, 0, 0, 0, 0, 0, 0, 0, 0, 0, 0, 0, 0, 0, 0, 0
"BUS3015", 13.8, 1,    8051.97,  -31.1,    1.0106, 2,    8093.49, -150.8,    1.0158, 3,    8073.89,   89.2,    1.0134, 0, 0, 0, 0, 0, 0, 0, 0, 0, 0, 0, 0
"BUS3016", 13.8, 2,     8093.1, -150.8,    1.0158, 0, 0, 0, 0, 0, 0, 0, 0, 0, 0, 0, 0, 0, 0, 0, 0, 0, 0, 0, 0
"BUS3017", 13.8, 2,     8092.8, -150.8,    1.0157, 0, 0, 0, 0, 0, 0, 0, 0, 0, 0, 0, 0, 0, 0, 0, 0, 0, 0, 0, 0
"BUS3018", 13.8, 3,    8073.27,   89.2,    1.0133, 0, 0, 0, 0, 0, 0, 0, 0, 0, 0, 0, 0, 0, 0, 0, 0, 0, 0, 0, 0
"BUS3019", 13.8, 3,    8072.56,   89.2,    1.0132, 0, 0, 0, 0, 0, 0, 0, 0, 0, 0, 0, 0, 0, 0, 0, 0, 0, 0, 0, 0
"BUS3020", 13.8, 3,    8072.01,   89.2,    1.0131, 0, 0, 0, 0, 0, 0, 0, 0, 0, 0, 0, 0, 0, 0, 0, 0, 0, 0, 0, 0
"BUS3021", 13.8, 3,    8071.79,   89.2,    1.0131, 0, 0, 0, 0, 0, 0, 0, 0, 0, 0, 0, 0, 0, 0, 0, 0, 0, 0, 0, 0
"BUS3022", 13.8, 1,    8048.46,  -31.2,    1.0102, 2,    8091.45, -150.8,    1.0156, 3,    8070.03,   89.2,    1.0129, 0, 0, 0, 0, 0, 0, 0, 0, 0, 0, 0, 0
"BUS3023", 13.8, 1,    8047.95,  -31.2,    1.0101, 0, 0, 0, 0, 0, 0, 0, 0, 0, 0, 0, 0, 0, 0, 0, 0, 0, 0, 0, 0
"BUS3024", 13.8, 1,    8047.36,  -31.2,      1.01, 0, 0, 0, 0, 0, 0, 0, 0, 0, 0, 0, 0, 0, 0, 0, 0, 0, 0, 0, 0
"BUS3025", 13.8, 1,    8047.06,  -31.2,      1.01, 0, 0, 0, 0, 0, 0, 0, 0, 0, 0, 0, 0, 0, 0, 0, 0, 0, 0, 0, 0
"BUS3026", 13.8, 1,    8047.88,  -31.2,    1.0101, 0, 0, 0, 0, 0, 0, 0, 0, 0, 0, 0, 0, 0, 0, 0, 0, 0, 0, 0, 0
"BUS3027", 13.8, 1,    8046.87,  -31.2,      1.01, 0, 0, 0, 0, 0, 0, 0, 0, 0, 0, 0, 0, 0, 0, 0, 0, 0, 0, 0, 0
"BUS3028", 13.8, 1,    8046.44,  -31.2,    1.0099, 0, 0, 0, 0, 0, 0, 0, 0, 0, 0, 0, 0, 0, 0, 0, 0, 0, 0, 0, 0
"BUS3029", 13.8, 1,    8046.26,  -31.2,    1.0099, 0, 0, 0, 0, 0, 0, 0, 0, 0, 0, 0, 0, 0, 0, 0, 0, 0, 0, 0, 0
"BUS3030", 13.8, 1,    8045.79,  -31.2,    1.0098, 2,    8088.58, -150.8,    1.0152, 3,    8066.43,   89.1,    1.0124, 0, 0, 0, 0, 0, 0, 0, 0, 0, 0, 0, 0
"BUS3035", 13.8, 1,    8045.56,  -31.2,    1.0098, 2,    8088.16, -150.8,    1.0152, 3,    8066.65,   89.1,    1.0125, 0, 0, 0, 0, 0, 0, 0, 0, 0, 0, 0, 0
"BUS3036", 13.8, 1,       8045,  -31.2,    1.0097, 2,    8087.09, -150.8,     1.015, 3,    8067.26,   89.1,    1.0125, 0, 0, 0, 0, 0, 0, 0, 0, 0, 0, 0, 0
"BUS3037", 13.8, 1,    8044.74,  -31.2,    1.0097, 2,    8086.57, -150.8,     1.015, 3,    8067.58,   89.1,    1.0126, 0, 0, 0, 0, 0, 0, 0, 0, 0, 0, 0, 0
"BUS3038", 13.8, 1,    8044.26,  -31.2,    1.0096, 2,    8085.62, -150.9,    1.0148, 3,     8068.2,   89.1,    1.0126, 0, 0, 0, 0, 0, 0, 0, 0, 0, 0, 0, 0
"BUS3039", 13.8, 1,    8043.84,  -31.2,    1.0096, 2,    8084.75, -150.9,    1.0147, 3,    8068.79,   89.1,    1.0127, 0, 0, 0, 0, 0, 0, 0, 0, 0, 0, 0, 0
"BUS3053", 13.8, 1,    8043.39,  -31.2,    1.0095, 2,    8083.81, -150.9,    1.0146, 3,    8069.48,   89.1,    1.0128, 0, 0, 0, 0, 0, 0, 0, 0, 0, 0, 0, 0
"BUS3054", 13.8, 1,    8043.37,  -31.2,    1.0095, 2,    8083.79, -150.9,    1.0146, 3,    8069.46,   89.1,    1.0128, 0, 0, 0, 0, 0, 0, 0, 0, 0, 0, 0, 0
"BUS3055", 13.8, 2,    8070.93, -150.9,     1.013, 0, 0, 0, 0, 0, 0, 0, 0, 0, 0, 0, 0, 0, 0, 0, 0, 0, 0, 0, 0
"BUS3056", 13.8, 2,    8070.38, -150.9,    1.0129, 0, 0, 0, 0, 0, 0, 0, 0, 0, 0, 0, 0, 0, 0, 0, 0, 0, 0, 0, 0
"BUS3057", 13.8, 2,    8069.77, -151.0,    1.0128, 0, 0, 0, 0, 0, 0, 0, 0, 0, 0, 0, 0, 0, 0, 0, 0, 0, 0, 0, 0
"BUS3058", 13.8, 2,    8069.28, -151.0,    1.0128, 0, 0, 0, 0, 0, 0, 0, 0, 0, 0, 0, 0, 0, 0, 0, 0, 0, 0, 0, 0
"BUS3059", 13.8, 2,    8068.71, -151.0,    1.0127, 0, 0, 0, 0, 0, 0, 0, 0, 0, 0, 0, 0, 0, 0, 0, 0, 0, 0, 0, 0
"BUS3060", 13.8, 2,    8068.61, -151.0,    1.0127, 0, 0, 0, 0, 0, 0, 0, 0, 0, 0, 0, 0, 0, 0, 0, 0, 0, 0, 0, 0
"BUS3061", 13.8, 2,    8068.53, -151.0,    1.0127, 0, 0, 0, 0, 0, 0, 0, 0, 0, 0, 0, 0, 0, 0, 0, 0, 0, 0, 0, 0
"BUS3062", 13.8, 2,    8068.52, -151.0,    1.0127, 0, 0, 0, 0, 0, 0, 0, 0, 0, 0, 0, 0, 0, 0, 0, 0, 0, 0, 0, 0
"BUS3063", 13.8, 2,    8067.58, -151.0,    1.0126, 0, 0, 0, 0, 0, 0, 0, 0, 0, 0, 0, 0, 0, 0, 0, 0, 0, 0, 0, 0
"BUS3064", 13.8, 2,    8066.97, -151.0,    1.0125, 0, 0, 0, 0, 0, 0, 0, 0, 0, 0, 0, 0, 0, 0, 0, 0, 0, 0, 0, 0
"BUS3065", 13.8, 2,    8066.42, -151.0,    1.0124, 0, 0, 0, 0, 0, 0, 0, 0, 0, 0, 0, 0, 0, 0, 0, 0, 0, 0, 0, 0
"BUS3066", 13.8, 2,    8066.21, -151.0,    1.0124, 0, 0, 0, 0, 0, 0, 0, 0, 0, 0, 0, 0, 0, 0, 0, 0, 0, 0, 0, 0
"BUS3067", 13.8, 2,    8065.87, -151.0,    1.0124, 0, 0, 0, 0, 0, 0, 0, 0, 0, 0, 0, 0, 0, 0, 0, 0, 0, 0, 0, 0
"BUS3040", 13.8, 1,     8046.1,  -31.2,    1.0099, 2,    8088.16, -150.8,    1.0152, 3,    8065.66,   89.1,    1.0123, 0, 0, 0, 0, 0, 0, 0, 0, 0, 0, 0, 0
"BUS3044", 13.8, 3,    8065.45,   89.1,    1.0123, 0, 0, 0, 0, 0, 0, 0, 0, 0, 0, 0, 0, 0, 0, 0, 0, 0, 0, 0, 0
"BUS3045", 13.8, 3,    8065.17,   89.1,    1.0123, 0, 0, 0, 0, 0, 0, 0, 0, 0, 0, 0, 0, 0, 0, 0, 0, 0, 0, 0, 0
"BUS3041", 13.8, 3,     8065.4,   89.1,    1.0123, 0, 0, 0, 0, 0, 0, 0, 0, 0, 0, 0, 0, 0, 0, 0, 0, 0, 0, 0, 0
"BUS3042", 13.8, 3,       8065,   89.1,    1.0122, 0, 0, 0, 0, 0, 0, 0, 0, 0, 0, 0, 0, 0, 0, 0, 0, 0, 0, 0, 0
"BUS3043", 13.8, 3,    8064.76,   89.1,    1.0122, 0, 0, 0, 0, 0, 0, 0, 0, 0, 0, 0, 0, 0, 0, 0, 0, 0, 0, 0, 0
"BUS3046", 13.8, 1,    8045.96,  -31.2,    1.0099, 2,    8088.02, -150.8,    1.0151, 3,    8065.52,   89.1,    1.0123, 0, 0, 0, 0, 0, 0, 0, 0, 0, 0, 0, 0
"BUS3047", 13.8, 1,    8045.93,  -31.2,    1.0099, 2,    8087.99, -150.8,    1.0151, 3,    8065.49,   89.1,    1.0123, 0, 0, 0, 0, 0, 0, 0, 0, 0, 0, 0, 0
"BUS3048", 13.8, 1,    8045.92,  -31.2,    1.0099, 2,    8087.98, -150.8,    1.0151, 3,    8065.48,   89.1,    1.0123, 0, 0, 0, 0, 0, 0, 0, 0, 0, 0, 0, 0
"BUS3049", 13.8, 1,    8045.86,  -31.2,    1.0098, 2,    8087.92, -150.8,    1.0151, 3,    8065.42,   89.1,    1.0123, 0, 0, 0, 0, 0, 0, 0, 0, 0, 0, 0, 0
"BUS3050", 13.8, 1,    8045.83,  -31.2,    1.0098, 2,    8087.89, -150.8,    1.0151, 3,    8065.39,   89.1,    1.0123, 0, 0, 0, 0, 0, 0, 0, 0, 0, 0, 0, 0
"BUS3051", 13.8, 1,    8045.78,  -31.2,    1.0098, 2,    8087.84, -150.8,    1.0151, 3,    8065.34,   89.1,    1.0123, 0, 0, 0, 0, 0, 0, 0, 0, 0, 0, 0, 0
"BUS3052", 13.8, 1,    8045.75,  -31.2,    1.0098, 2,    8087.82, -150.8,    1.0151, 3,    8065.32,   89.1,    1.0123, 0, 0, 0, 0, 0, 0, 0, 0, 0, 0, 0, 0
"BUS3031", 13.8, 1,    8043.96,  -31.3,    1.0096, 2,    8087.58, -150.8,    1.0151, 3,     8063.6,   89.1,    1.0121, 0, 0, 0, 0, 0, 0, 0, 0, 0, 0, 0, 0
"BUS3032", 13.8, 1,     8042.1,  -31.3,    1.0094, 2,    8086.57, -150.8,     1.015, 3,    8060.71,   89.1,    1.0117, 0, 0, 0, 0, 0, 0, 0, 0, 0, 0, 0, 0
"BUS3033", 13.8, 1,    8039.27,  -31.3,     1.009, 2,    8085.06, -150.9,    1.0148, 3,    8056.27,   89.0,    1.0112, 0, 0, 0, 0, 0, 0, 0, 0, 0, 0, 0, 0
"BUS3034", 13.8, 1,    8037.43,  -31.4,    1.0088, 2,    8084.08, -150.9,    1.0146, 3,    8053.37,   89.0,    1.0108, 0, 0, 0, 0, 0, 0, 0, 0, 0, 0, 0, 0
"BUS3068", 13.8, 1,    8036.27,  -31.4,    1.0086, 2,    8083.48, -150.9,    1.0146, 3,    8051.53,   89.0,    1.0106, 0, 0, 0, 0, 0, 0, 0, 0, 0, 0, 0, 0
"BUS3069", 13.8, 1,    8036.16,  -31.4,    1.0086, 2,    8083.37, -150.9,    1.0146, 3,    8051.43,   89.0,    1.0105, 0, 0, 0, 0, 0, 0, 0, 0, 0, 0, 0, 0
"BUS3070", 13.8, 1,    8036.11,  -31.4,    1.0086, 2,    8083.32, -150.9,    1.0145, 3,    8051.38,   89.0,    1.0105, 0, 0, 0, 0, 0, 0, 0, 0, 0, 0, 0, 0
"BUS3071", 13.8, 1,    8036.06,  -31.4,    1.0086, 2,    8083.27, -150.9,    1.0145, 3,    8051.33,   89.0,    1.0105, 0, 0, 0, 0, 0, 0, 0, 0, 0, 0, 0, 0
"BUS3072", 13.8, 1,    8036.05,  -31.4,    1.0086, 2,    8083.26, -150.9,    1.0145, 3,    8051.31,   89.0,    1.0105, 0, 0, 0, 0, 0, 0, 0, 0, 0, 0, 0, 0
"BUS3073", 13.8, 1,    8036.16,  -31.4,    1.0086, 2,    8083.37, -150.9,    1.0146, 3,    8051.43,   89.0,    1.0105, 0, 0, 0, 0, 0, 0, 0, 0, 0, 0, 0, 0
"BUS3074", 13.8, 1,    8036.14,  -31.4,    1.0086, 2,    8083.35, -150.9,    1.0145, 3,     8051.4,   89.0,    1.0105, 0, 0, 0, 0, 0, 0, 0, 0, 0, 0, 0, 0
"BUS3075", 13.8, 1,       8035,  -31.4,    1.0085, 2,    8082.84, -150.9,    1.0145, 3,    8049.49,   89.0,    1.0103, 0, 0, 0, 0, 0, 0, 0, 0, 0, 0, 0, 0
"BUS3076", 13.8, 1,       8035,  -31.4,    1.0085, 2,    8082.84, -150.9,    1.0145, 3,    8049.49,   89.0,    1.0103, 0, 0, 0, 0, 0, 0, 0, 0, 0, 0, 0, 0
"BUS3077", 13.8, 1,    8034.06,  -31.4,    1.0084, 2,    8081.92, -150.9,    1.0144, 3,    8048.56,   89.0,    1.0102, 0, 0, 0, 0, 0, 0, 0, 0, 0, 0, 0, 0
"BUS3078", 13.8, 1,    8034.06,  -31.4,    1.0084, 2,    8081.92, -150.9,    1.0144, 3,    8048.55,   89.0,    1.0102, 0, 0, 0, 0, 0, 0, 0, 0, 0, 0, 0, 0
"BUS3079", 13.8, 1,    8033.92,  -31.4,    1.0083, 2,     8082.4, -150.9,    1.0144, 3,    8047.62,   89.0,    1.0101, 0, 0, 0, 0, 0, 0, 0, 0, 0, 0, 0, 0
"BUS3080", 13.8, 1,    8030.33,  -31.5,    1.0079, 2,     8080.8, -150.9,    1.0142, 3,    8041.51,   88.9,    1.0093, 0, 0, 0, 0, 0, 0, 0, 0, 0, 0, 0, 0
"BUS3081", 13.8, 1,    8030.31,  -31.5,    1.0079, 2,    8080.78, -150.9,    1.0142, 3,    8041.49,   88.9,    1.0093, 4,    8030.31,  -31.5,    1.0079, 5,    8080.78, -150.9,    1.0142, 6,    8041.49,   88.9,    1.0093
"BUS3082", 13.8, 1,    8027.18,  -31.6,    1.0075, 2,    8079.43, -150.9,    1.0141, 3,    8036.11,   88.9,    1.0086, 0, 0, 0, 0, 0, 0, 0, 0, 0, 0, 0, 0
"BUS3083", 13.8, 1,    8026.23,  -31.6,    1.0074, 0, 0, 0, 0, 0, 0, 0, 0, 0, 0, 0, 0, 0, 0, 0, 0, 0, 0, 0, 0
"BUS3084", 13.8, 1,     8024.9,  -31.6,    1.0072, 0, 0, 0, 0, 0, 0, 0, 0, 0, 0, 0, 0, 0, 0, 0, 0, 0, 0, 0, 0
"BUS3085", 13.8, 1,     8021.8,  -31.6,    1.0068, 0, 0, 0, 0, 0, 0, 0, 0, 0, 0, 0, 0, 0, 0, 0, 0, 0, 0, 0, 0
"BUS3086", 13.8, 1,    8020.16,  -31.6,    1.0066, 0, 0, 0, 0, 0, 0, 0, 0, 0, 0, 0, 0, 0, 0, 0, 0, 0, 0, 0, 0
"BUS3087", 13.8, 1,    8019.12,  -31.6,    1.0065, 0, 0, 0, 0, 0, 0, 0, 0, 0, 0, 0, 0, 0, 0, 0, 0, 0, 0, 0, 0
"BUS3088", 13.8, 1,    8017.73,  -31.6,    1.0063, 0, 0, 0, 0, 0, 0, 0, 0, 0, 0, 0, 0, 0, 0, 0, 0, 0, 0, 0, 0
"BUS3089", 13.8, 1,    8017.48,  -31.6,    1.0063, 0, 0, 0, 0, 0, 0, 0, 0, 0, 0, 0, 0, 0, 0, 0, 0, 0, 0, 0, 0
"BUS3090", 13.8, 1,    8016.66,  -31.6,    1.0062, 0, 0, 0, 0, 0, 0, 0, 0, 0, 0, 0, 0, 0, 0, 0, 0, 0, 0, 0, 0
"BUS3091", 13.8, 1,    8016.54,  -31.6,    1.0062, 0, 0, 0, 0, 0, 0, 0, 0, 0, 0, 0, 0, 0, 0, 0, 0, 0, 0, 0, 0
"BUS3092", 13.8, 1,    8026.84,  -31.6,    1.0075, 2,    8079.26, -150.9,     1.014, 3,    8034.59,   88.9,    1.0084, 0, 0, 0, 0, 0, 0, 0, 0, 0, 0, 0, 0
"BUS3093", 13.8, 1,    8025.74,  -31.6,    1.0073, 0, 0, 0, 0, 0, 0, 0, 0, 0, 0, 0, 0, 0, 0, 0, 0, 0, 0, 0, 0
"BUS3094", 13.8, 1,    8025.24,  -31.6,    1.0073, 0, 0, 0, 0, 0, 0, 0, 0, 0, 0, 0, 0, 0, 0, 0, 0, 0, 0, 0, 0
"BUS3095", 13.8, 1,    8025.04,  -31.6,    1.0072, 0, 0, 0, 0, 0, 0, 0, 0, 0, 0, 0, 0, 0, 0, 0, 0, 0, 0, 0, 0
"BUS3096", 13.8, 1,     8024.4,  -31.6,    1.0071, 0, 0, 0, 0, 0, 0, 0, 0, 0, 0, 0, 0, 0, 0, 0, 0, 0, 0, 0, 0
"BUS3097", 13.8, 1,    8024.27,  -31.6,    1.0071, 0, 0, 0, 0, 0, 0, 0, 0, 0, 0, 0, 0, 0, 0, 0, 0, 0, 0, 0, 0
"BUS3098", 13.8, 2,    8078.57, -150.9,    1.0139, 0, 0, 0, 0, 0, 0, 0, 0, 0, 0, 0, 0, 0, 0, 0, 0, 0, 0, 0, 0
"BUS3099", 13.8, 2,    8078.25, -150.9,    1.0139, 0, 0, 0, 0, 0, 0, 0, 0, 0, 0, 0, 0, 0, 0, 0, 0, 0, 0, 0, 0
"BUS3100", 13.8, 1,    8027.12,  -31.6,    1.0075, 2,    8079.26, -150.9,     1.014, 3,    8033.77,   88.8,    1.0083, 0, 0, 0, 0, 0, 0, 0, 0, 0, 0, 0, 0
"BUS3101", 13.8, 3,    8033.32,   88.8,    1.0083, 0, 0, 0, 0, 0, 0, 0, 0, 0, 0, 0, 0, 0, 0, 0, 0, 0, 0, 0, 0
"BUS3102", 13.8, 3,    8032.85,   88.8,    1.0082, 0, 0, 0, 0, 0, 0, 0, 0, 0, 0, 0, 0, 0, 0, 0, 0, 0, 0, 0, 0
"BUS3103", 13.8, 3,    8032.69,   88.8,    1.0082, 0, 0, 0, 0, 0, 0, 0, 0, 0, 0, 0, 0, 0, 0, 0, 0, 0, 0, 0, 0
"BUS3104", 13.8, 3,     8032.4,   88.8,    1.0082, 0, 0, 0, 0, 0, 0, 0, 0, 0, 0, 0, 0, 0, 0, 0, 0, 0, 0, 0, 0
"BUS3105", 13.8, 3,       8032,   88.8,    1.0081, 0, 0, 0, 0, 0, 0, 0, 0, 0, 0, 0, 0, 0, 0, 0, 0, 0, 0, 0, 0
"BUS3106", 13.8, 3,    8031.53,   88.8,     1.008, 0, 0, 0, 0, 0, 0, 0, 0, 0, 0, 0, 0, 0, 0, 0, 0, 0, 0, 0, 0
"BUS3107", 13.8, 1,    8019.42,  -31.6,    1.0065, 2,    8073.43, -151.0,    1.0133, 3,    8026.11,   88.8,    1.0074, 0, 0, 0, 0, 0, 0, 0, 0, 0, 0, 0, 0
"BUS3108", 13.8, 1,     8016.5,  -31.6,    1.0062, 0, 0, 0, 0, 0, 0, 0, 0, 0, 0, 0, 0, 0, 0, 0, 0, 0, 0, 0, 0
"BUS3109", 13.8, 1,    8015.72,  -31.6,    1.0061, 0, 0, 0, 0, 0, 0, 0, 0, 0, 0, 0, 0, 0, 0, 0, 0, 0, 0, 0, 0
"BUS3110", 13.8, 1,    8015.02,  -31.6,     1.006, 0, 0, 0, 0, 0, 0, 0, 0, 0, 0, 0, 0, 0, 0, 0, 0, 0, 0, 0, 0
"BUS3111", 13.8, 1,    8014.17,  -31.6,    1.0059, 0, 0, 0, 0, 0, 0, 0, 0, 0, 0, 0, 0, 0, 0, 0, 0, 0, 0, 0, 0
"BUS3112", 13.8, 1,    8013.68,  -31.6,    1.0058, 0, 0, 0, 0, 0, 0, 0, 0, 0, 0, 0, 0, 0, 0, 0, 0, 0, 0, 0, 0
"BUS3113", 13.8, 2,    8072.46, -151.0,    1.0132, 0, 0, 0, 0, 0, 0, 0, 0, 0, 0, 0, 0, 0, 0, 0, 0, 0, 0, 0, 0
"BUS3114", 13.8, 2,    8072.11, -151.0,    1.0131, 0, 0, 0, 0, 0, 0, 0, 0, 0, 0, 0, 0, 0, 0, 0, 0, 0, 0, 0, 0
"BUS3115", 13.8, 2,    8071.66, -151.0,    1.0131, 0, 0, 0, 0, 0, 0, 0, 0, 0, 0, 0, 0, 0, 0, 0, 0, 0, 0, 0, 0
"BUS3116", 13.8, 2,    8071.76, -151.0,    1.0131, 0, 0, 0, 0, 0, 0, 0, 0, 0, 0, 0, 0, 0, 0, 0, 0, 0, 0, 0, 0
"BUS3117", 13.8, 2,    8071.69, -151.0,    1.0131, 0, 0, 0, 0, 0, 0, 0, 0, 0, 0, 0, 0, 0, 0, 0, 0, 0, 0, 0, 0
"BUS3118", 13.8, 1,    8008.51,  -31.6,    1.0052, 2,    8064.24, -151.0,    1.0122, 3,    8031.34,   88.8,     1.008, 0, 0, 0, 0, 0, 0, 0, 0, 0, 0, 0, 0
"BUS3119", 13.8, 2,    8059.93, -151.1,    1.0116, 0, 0, 0, 0, 0, 0, 0, 0, 0, 0, 0, 0, 0, 0, 0, 0, 0, 0, 0, 0
"BUS3120", 13.8, 2,    8059.09, -151.1,    1.0115, 0, 0, 0, 0, 0, 0, 0, 0, 0, 0, 0, 0, 0, 0, 0, 0, 0, 0, 0, 0
"BUS3121", 13.8, 2,    8058.78, -151.1,    1.0115, 0, 0, 0, 0, 0, 0, 0, 0, 0, 0, 0, 0, 0, 0, 0, 0, 0, 0, 0, 0
"BUS3122", 13.8, 2,    8058.65, -151.1,    1.0114, 0, 0, 0, 0, 0, 0, 0, 0, 0, 0, 0, 0, 0, 0, 0, 0, 0, 0, 0, 0
"BUS3123", 13.8, 2,     8059.3, -151.1,    1.0115, 0, 0, 0, 0, 0, 0, 0, 0, 0, 0, 0, 0, 0, 0, 0, 0, 0, 0, 0, 0
...
"BUS_FAULT", 13.8, 1,    8145.96,  -30.6,    1.0224, 2,    8150.56, -150.4,     1.023, 3,    8155.75,   89.5,    1.0236, 0, 0, 0, 0, 0, 0, 0, 0, 0, 0, 0, 0
"T_BUS1003_L", 0.208, 1,    120.852,  -32.0,    1.0064, 2,    120.889, -151.8,    1.0067, 3,     120.99,   88.2,    1.0075, 0, 0, 0, 0, 0, 0, 0, 0, 0, 0, 0, 0
"T_BUS1004_L", 0.208, 1,    121.193,  -31.3,    1.0092, 2,     121.22, -151.0,    1.0094, 3,    121.328,   88.9,    1.0103, 0, 0, 0, 0, 0, 0, 0, 0, 0, 0, 0, 0
"T_BUS1005_L", 0.208, 1,     120.73,  -31.5,    1.0053, 2,    120.751, -151.2,    1.0055, 3,    120.865,   88.7,    1.0065, 0, 0, 0, 0, 0, 0, 0, 0, 0, 0, 0, 0
"T_BUS1006_L", 0.208, 1,    122.089,  -35.1,    1.0167, 2,    122.687, -150.4,    1.0216, 0, 0, 0, 0, 0, 0, 0, 0, 0, 0, 0, 0, 0, 0, 0, 0
"T_BUS1007_L", 0.208, 1,    122.549,  -33.7,    1.0205, 2,    122.683, -150.4,    1.0216, 0, 0, 0, 0, 0, 0, 0, 0, 0, 0, 0, 0, 0, 0, 0, 0
"T_BUS1008_L", 0.208, 1,    120.148,  -31.5,    1.0005, 2,     120.15, -151.2,    1.0005, 3,    120.279,   88.7,    1.0016, 0, 0, 0, 0, 0, 0, 0, 0, 0, 0, 0, 0
"T_BUS1009_L", 0.208, 1,    120.794,  -31.4,    1.0059, 2,    120.789, -151.2,    1.0058, 3,    120.922,   88.7,    1.0069, 0, 0, 0, 0, 0, 0, 0, 0, 0, 0, 0, 0
"T_BUS1010_L", 0.208, 1,    121.164,  -31.2,     1.009, 2,    121.159, -150.9,    1.0089, 3,    121.291,   89.0,      1.01, 0, 0, 0, 0, 0, 0, 0, 0, 0, 0, 0, 0
"T_BUS1011_L", 0.208, 1,     121.47,  -31.5,    1.0115, 2,     121.47,  148.5,    1.0115, 0, 0, 0, 0, 0, 0, 0, 0, 0, 0, 0, 0, 0, 0, 0, 0
"T_BUS1012_L", 0.208, 1,    120.463, -151.2,    1.0031, 2,    120.463,   28.8,    1.0031, 0, 0, 0, 0, 0, 0, 0, 0, 0, 0, 0, 0, 0, 0, 0, 0
"T_BUS1013_L", 0.208, 1,    121.365,  -31.1,    1.0106, 2,    121.353, -150.9,    1.0105, 3,    121.482,   89.1,    1.0116, 0, 0, 0, 0, 0, 0, 0, 0, 0, 0, 0, 0
"T_BUS1014_L", 0.208, 1,    122.205, -150.7,    1.0176, 2,    122.205,   29.3,    1.0176, 0, 0, 0, 0, 0, 0, 0, 0, 0, 0, 0, 0, 0, 0, 0, 0
"T_BUS1015_L", 0.208, 1,    122.065, -150.8,    1.0165, 2,    122.065,   29.2,    1.0165, 0, 0, 0, 0, 0, 0, 0, 0, 0, 0, 0, 0, 0, 0, 0, 0
"T_BUS1016_L", 0.208, 1,    121.333,   88.9,    1.0104, 2,    121.333,  -91.1,    1.0104, 0, 0, 0, 0, 0, 0, 0, 0, 0, 0, 0, 0, 0, 0, 0, 0
"T_BUS1017_L", 0.208, 1,    120.706,   88.8,    1.0051, 2,    120.706,  -91.2,    1.0051, 0, 0, 0, 0, 0, 0, 0, 0, 0, 0, 0, 0, 0, 0, 0, 0
"T_BUS2002_L", 0.208, 1,      120.8,  -32.7,    1.0059, 2,    120.829, -152.5,    1.0062, 3,    120.965,   87.5,    1.0073, 0, 0, 0, 0, 0, 0, 0, 0, 0, 0, 0, 0
...